<?xml version="1.0" encoding="UTF-8"?>

<!-- generated on Sat May 11 18:33:46 2024 by SUMO netconvert Version 0.32.0
<?xml version="1.0" encoding="UTF-8"?>

<configuration xmlns:xsi="http://www.w3.org/2001/XMLSchema-instance" xsi:noNamespaceSchemaLocation="http://sumo.dlr.de/xsd/netconvertConfiguration.xsd">

    <input>
        <type-files value="/opt/tools/sumo-0.32.0/data/typemap/osmNetconvert.typ.xml"/>
        <osm-files value="osm_bbox.osm.xml"/>
    </input>

    <output>
        <output-file value="/tmp/tmpj6mppwqf/osm.net.xml"/>
        <output.street-names value="true"/>
        <output.original-names value="true"/>
    </output>

    <projection>
        <proj.utm value="true"/>
    </projection>

    <tls_building>
        <tls.discard-simple value="true"/>
        <tls.join value="true"/>
        <tls.guess-signals value="true"/>
        <tls.default-type value="actuated"/>
    </tls_building>

    <ramp_guessing>
        <ramps.guess value="true"/>
    </ramp_guessing>

    <edge_removal>
        <remove-edges.by-vclass value="pedestrian"/>
        <remove-edges.isolated value="true"/>
    </edge_removal>

    <processing>
        <geometry.remove value="true"/>
        <roundabouts.guess value="true"/>
        <junctions.join value="true"/>
        <junctions.corner-detail value="5"/>
    </processing>

    <report>
        <verbose value="true"/>
    </report>

</configuration>
-->

<net version="0.27" junctionCornerDetail="5" xmlns:xsi="http://www.w3.org/2001/XMLSchema-instance" xsi:noNamespaceSchemaLocation="http://sumo.dlr.de/xsd/net_file.xsd">

    <location netOffset="-398756.96,-6183509.39" convBoundary="0.00,0.00,3715.49,4064.74" origBoundary="37.384411,55.786684,37.446433,55.829101" projParameter="+proj=utm +zone=37 +ellps=WGS84 +datum=WGS84 +units=m +no_defs"/>

    <type id="highway.bridleway" priority="1" numLanes="1" speed="2.78" allow="pedestrian" oneway="1" width="2.00"/>
    <type id="highway.bus_guideway" priority="1" numLanes="1" speed="8.33" allow="bus" oneway="1"/>
    <type id="highway.cycleway" priority="1" numLanes="1" speed="5.56" allow="bicycle" oneway="0" width="1.00"/>
    <type id="highway.footway" priority="1" numLanes="1" speed="2.78" allow="pedestrian" oneway="1" width="2.00"/>
    <type id="highway.ford" priority="1" numLanes="1" speed="2.78" allow="army" oneway="0"/>
    <type id="highway.living_street" priority="3" numLanes="1" speed="2.78" disallow="tram rail_urban rail rail_electric ship" oneway="0"/>
    <type id="highway.motorway" priority="13" numLanes="2" speed="44.44" allow="private emergency authority army vip passenger hov taxi bus coach delivery truck trailer motorcycle evehicle custom1 custom2" oneway="1"/>
    <type id="highway.motorway_link" priority="12" numLanes="1" speed="22.22" allow="private emergency authority army vip passenger hov taxi bus coach delivery truck trailer motorcycle evehicle custom1 custom2" oneway="1"/>
    <type id="highway.path" priority="1" numLanes="1" speed="2.78" allow="bicycle pedestrian" oneway="1" width="2.00"/>
    <type id="highway.pedestrian" priority="1" numLanes="1" speed="2.78" allow="pedestrian" oneway="1" width="2.00"/>
    <type id="highway.primary" priority="9" numLanes="2" speed="27.78" disallow="tram rail_urban rail rail_electric ship" oneway="0"/>
    <type id="highway.primary_link" priority="8" numLanes="1" speed="22.22" disallow="tram rail_urban rail rail_electric ship" oneway="0"/>
    <type id="highway.raceway" priority="14" numLanes="2" speed="83.33" allow="vip" oneway="0"/>
    <type id="highway.residential" priority="4" numLanes="1" speed="13.89" disallow="tram rail_urban rail rail_electric ship" oneway="0"/>
    <type id="highway.secondary" priority="7" numLanes="2" speed="27.78" disallow="tram rail_urban rail rail_electric ship" oneway="0"/>
    <type id="highway.secondary_link" priority="6" numLanes="1" speed="22.22" disallow="tram rail_urban rail rail_electric ship" oneway="0"/>
    <type id="highway.service" priority="2" numLanes="1" speed="5.56" allow="delivery bicycle pedestrian" oneway="0"/>
    <type id="highway.services" priority="1" numLanes="1" speed="8.33" disallow="tram rail_urban rail rail_electric ship" oneway="0"/>
    <type id="highway.stairs" priority="1" numLanes="1" speed="1.39" allow="pedestrian" oneway="1" width="2.00"/>
    <type id="highway.step" priority="1" numLanes="1" speed="1.39" allow="pedestrian" oneway="1" width="2.00"/>
    <type id="highway.steps" priority="1" numLanes="1" speed="1.39" allow="pedestrian" oneway="1" width="2.00"/>
    <type id="highway.tertiary" priority="6" numLanes="1" speed="22.22" disallow="tram rail_urban rail rail_electric ship" oneway="0"/>
    <type id="highway.tertiary_link" priority="5" numLanes="1" speed="22.22" disallow="tram rail_urban rail rail_electric ship" oneway="0"/>
    <type id="highway.track" priority="1" numLanes="1" speed="5.56" disallow="tram rail_urban rail rail_electric ship" oneway="0"/>
    <type id="highway.trunk" priority="11" numLanes="2" speed="27.78" disallow="tram rail_urban rail rail_electric bicycle pedestrian ship" oneway="0"/>
    <type id="highway.trunk_link" priority="10" numLanes="1" speed="22.22" disallow="tram rail_urban rail rail_electric bicycle pedestrian ship" oneway="0"/>
    <type id="highway.unclassified" priority="5" numLanes="1" speed="13.89" disallow="tram rail_urban rail rail_electric ship" oneway="0"/>
    <type id="highway.unsurfaced" priority="1" numLanes="1" speed="8.33" disallow="tram rail_urban rail rail_electric ship" oneway="0"/>
    <type id="railway.light_rail" priority="15" numLanes="1" speed="27.78" allow="rail_urban" oneway="1"/>
    <type id="railway.preserved" priority="15" numLanes="1" speed="27.78" allow="rail" oneway="1"/>
    <type id="railway.rail" priority="15" numLanes="1" speed="83.33" allow="rail rail_electric" oneway="1"/>
    <type id="railway.subway" priority="15" numLanes="1" speed="27.78" allow="rail_urban" oneway="1"/>
    <type id="railway.tram" priority="15" numLanes="1" speed="13.89" allow="tram" oneway="1"/>

    <edge id=":10111528297_0" function="internal">
        <lane id=":10111528297_0_0" index="0" disallow="tram rail_urban rail rail_electric ship" speed="27.78" length="4.82" shape="396.31,1310.65 394.94,1311.22 394.02,1311.10 393.57,1310.30 393.57,1308.81"/>
    </edge>
    <edge id=":1038524594_0" function="internal">
        <lane id=":1038524594_0_0" index="0" disallow="tram rail_urban rail rail_electric ship" speed="13.89" length="5.00" shape="1364.07,1753.27 1364.76,1754.46 1365.67,1755.13 1366.79,1755.29 1368.12,1754.95"/>
    </edge>
    <edge id=":1038524594_1" function="internal">
        <lane id=":1038524594_1_0" index="0" disallow="tram rail_urban rail rail_electric ship" speed="13.89" length="7.85" shape="1364.07,1753.27 1365.32,1755.79 1366.62,1757.42 1367.97,1758.15 1369.39,1758.00"/>
    </edge>
    <edge id=":1038524594_2" function="internal">
        <lane id=":1038524594_2_0" index="0" allow="delivery bicycle pedestrian" speed="5.56" length="4.82" shape="1364.07,1753.27 1363.78,1754.73 1363.17,1755.43 1362.25,1755.36 1361.02,1754.53"/>
    </edge>
    <edge id=":1038524594_3" function="internal">
        <lane id=":1038524594_3_0" index="0" allow="delivery bicycle pedestrian" speed="13.89" length="7.80" shape="1360.56,1761.58 1361.67,1760.70 1362.11,1759.23 1361.90,1757.18 1361.02,1754.53"/>
    </edge>
    <edge id=":1038524594_4" function="internal">
        <lane id=":1038524594_4_0" index="0" disallow="tram rail_urban rail rail_electric ship" speed="22.22" length="9.54" shape="1360.56,1761.58 1369.39,1758.00"/>
        <lane id=":1038524594_4_1" index="1" disallow="tram rail_urban rail rail_electric ship" speed="22.22" length="9.54" shape="1361.81,1764.64 1370.65,1761.05"/>
        <lane id=":1038524594_4_2" index="2" disallow="tram rail_urban rail rail_electric ship" speed="22.22" length="9.54" shape="1363.06,1767.69 1371.92,1764.09"/>
    </edge>
    <edge id=":1052675054#0-AddedOnRampNode_0" function="internal">
        <lane id=":1052675054#0-AddedOnRampNode_0_0" index="0" disallow="tram rail_urban rail rail_electric ship" speed="22.22" length="3.00" shape="694.28,2032.58 697.03,2031.39"/>
        <lane id=":1052675054#0-AddedOnRampNode_0_1" index="1" disallow="tram rail_urban rail rail_electric ship" speed="22.22" length="3.00" shape="695.53,2035.63 698.29,2034.44"/>
        <lane id=":1052675054#0-AddedOnRampNode_0_2" index="2" disallow="tram rail_urban rail rail_electric ship" speed="22.22" length="3.00" shape="696.79,2038.69 699.55,2037.49"/>
    </edge>
    <edge id=":10537767605_0" function="internal">
        <lane id=":10537767605_0_0" index="0" allow="delivery bicycle pedestrian" speed="5.56" length="9.50" shape="483.59,2486.79 479.95,2478.01"/>
    </edge>
    <edge id=":10537767605_1" function="internal">
        <lane id=":10537767605_1_0" index="0" allow="delivery bicycle pedestrian" speed="5.56" length="10.32" shape="483.59,2486.79 482.88,2484.05 483.23,2481.74 484.62,2479.86 487.05,2478.42"/>
    </edge>
    <edge id=":10537767605_2" function="internal">
        <lane id=":10537767605_2_0" index="0" allow="delivery bicycle pedestrian" speed="5.56" length="4.82" shape="483.59,2486.79 483.87,2485.33 484.48,2484.63 485.40,2484.69 486.63,2485.52"/>
    </edge>
    <edge id=":10537767605_3" function="internal">
        <lane id=":10537767605_3_0" index="0" allow="delivery bicycle pedestrian" speed="5.56" length="5.01" shape="488.32,2481.47 487.14,2482.17 486.46,2483.08 486.29,2484.20 486.63,2485.52"/>
    </edge>
    <edge id=":10537767605_4" function="internal">
        <lane id=":10537767605_4_0" index="0" allow="delivery bicycle pedestrian" speed="5.56" length="10.33" shape="488.32,2481.47 485.58,2482.17 483.27,2481.83 481.39,2480.44 479.95,2478.01"/>
    </edge>
    <edge id=":10537767605_5" function="internal">
        <lane id=":10537767605_5_0" index="0" allow="delivery bicycle pedestrian" speed="5.56" length="4.82" shape="488.32,2481.47 486.86,2481.18 486.16,2480.58 486.22,2479.66 487.05,2478.42"/>
    </edge>
    <edge id=":10537767605_6" function="internal">
        <lane id=":10537767605_6_0" index="0" allow="delivery bicycle pedestrian" speed="5.56" length="5.00" shape="483.00,2476.74 483.70,2477.92 484.60,2478.60 485.72,2478.76 487.05,2478.42"/>
    </edge>
    <edge id=":10537767605_7" function="internal">
        <lane id=":10537767605_7_0" index="0" allow="delivery bicycle pedestrian" speed="5.56" length="9.50" shape="483.00,2476.74 486.63,2485.52"/>
    </edge>
    <edge id=":10537767605_8" function="internal">
        <lane id=":10537767605_8_0" index="0" allow="delivery bicycle pedestrian" speed="5.56" length="4.82" shape="483.00,2476.74 482.71,2478.20 482.10,2478.90 481.18,2478.84 479.95,2478.01"/>
    </edge>
    <edge id=":10537767606_0" function="internal">
        <lane id=":10537767606_0_0" index="0" allow="delivery bicycle pedestrian" speed="5.56" length="5.04" shape="538.27,2464.01 537.56,2462.85 536.63,2462.19 535.50,2462.03 534.15,2462.39"/>
    </edge>
    <edge id=":10537767606_1" function="internal">
        <lane id=":10537767606_1_0" index="0" allow="delivery bicycle pedestrian" speed="5.56" length="9.50" shape="538.27,2464.01 534.53,2455.28"/>
    </edge>
    <edge id=":10537767606_2" function="internal">
        <lane id=":10537767606_2_0" index="0" allow="delivery bicycle pedestrian" speed="5.56" length="4.82" shape="538.27,2464.01 538.54,2462.55 539.14,2461.84 540.06,2461.90 541.30,2462.71"/>
    </edge>
    <edge id=":10537767606_3" function="internal">
        <lane id=":10537767606_3_0" index="0" allow="delivery bicycle pedestrian" speed="5.56" length="9.50" shape="537.56,2453.98 541.30,2462.71"/>
    </edge>
    <edge id=":10537767606_4" function="internal">
        <lane id=":10537767606_4_0" index="0" allow="delivery bicycle pedestrian" speed="5.56" length="10.37" shape="537.56,2453.98 538.30,2456.73 537.98,2459.05 536.59,2460.93 534.15,2462.39"/>
    </edge>
    <edge id=":10537767606_5" function="internal">
        <lane id=":10537767606_5_0" index="0" allow="delivery bicycle pedestrian" speed="5.56" length="4.82" shape="537.56,2453.98 537.29,2455.44 536.70,2456.14 535.77,2456.09 534.53,2455.28"/>
    </edge>
    <edge id=":10537767606_6" function="internal">
        <lane id=":10537767606_6_0" index="0" allow="delivery bicycle pedestrian" speed="5.56" length="5.01" shape="532.88,2459.34 534.06,2458.64 534.73,2457.73 534.89,2456.61 534.53,2455.28"/>
    </edge>
    <edge id=":10537767606_7" function="internal">
        <lane id=":10537767606_7_0" index="0" allow="delivery bicycle pedestrian" speed="5.56" length="10.32" shape="532.88,2459.34 535.63,2458.63 537.95,2458.95 539.84,2460.31 541.30,2462.71"/>
    </edge>
    <edge id=":10537767606_8" function="internal">
        <lane id=":10537767606_8_0" index="0" allow="delivery bicycle pedestrian" speed="5.56" length="4.82" shape="532.88,2459.34 534.34,2459.63 535.04,2460.23 534.97,2461.15 534.15,2462.39"/>
    </edge>
    <edge id=":10655904500_0" function="internal">
        <lane id=":10655904500_0_0" index="0" allow="delivery bicycle pedestrian" speed="5.56" length="4.82" shape="646.46,1097.52 645.01,1097.20 644.32,1096.58 644.41,1095.66 645.26,1094.44"/>
    </edge>
    <edge id=":10655904501_0" function="internal">
        <lane id=":10655904501_0_0" index="0" allow="delivery bicycle pedestrian" speed="5.56" length="4.82" shape="636.08,1065.97 634.64,1065.60 633.98,1064.95 634.10,1064.04 635.00,1062.85"/>
    </edge>
    <edge id=":10655904502_0" function="internal">
        <lane id=":10655904502_0_0" index="0" allow="delivery bicycle pedestrian" speed="5.56" length="4.82" shape="640.78,1082.15 639.35,1081.74 638.71,1081.07 638.86,1080.16 639.79,1079.00"/>
    </edge>
    <edge id=":10655969906_0" function="internal">
        <lane id=":10655969906_0_0" index="0" allow="delivery bicycle pedestrian" speed="5.56" length="5.08" shape="655.97,1062.43 655.41,1061.14 654.58,1060.37 653.47,1060.12 652.09,1060.39"/>
    </edge>
    <edge id=":10655969906_1" function="internal">
        <lane id=":10655969906_1_0" index="0" allow="delivery bicycle pedestrian" speed="5.56" length="9.52" shape="655.97,1062.43 653.46,1053.25"/>
    </edge>
    <edge id=":10655969906_2" function="internal">
        <lane id=":10655969906_2_0" index="0" allow="delivery bicycle pedestrian" speed="5.56" length="4.82" shape="655.97,1062.43 656.44,1061.02 657.13,1060.41 658.03,1060.59 659.16,1061.56"/>
    </edge>
    <edge id=":10655969906_3" function="internal">
        <lane id=":10655969906_3_0" index="0" allow="delivery bicycle pedestrian" speed="5.56" length="9.52" shape="656.65,1052.38 659.16,1061.56"/>
    </edge>
    <edge id=":10655969906_4" function="internal">
        <lane id=":10655969906_4_0" index="0" allow="delivery bicycle pedestrian" speed="5.56" length="10.35" shape="656.65,1052.38 656.96,1055.08 656.31,1057.32 654.68,1059.09 652.09,1060.39"/>
    </edge>
    <edge id=":10655969906_5" function="internal">
        <lane id=":10655969906_5_0" index="0" allow="delivery bicycle pedestrian" speed="5.56" length="4.82" shape="656.65,1052.38 656.18,1053.79 655.49,1054.41 654.59,1054.23 653.46,1053.25"/>
    </edge>
    <edge id=":10655969906_6" function="internal">
        <lane id=":10655969906_6_0" index="0" allow="delivery bicycle pedestrian" speed="5.56" length="5.29" shape="651.00,1057.27 652.38,1056.60 653.24,1055.70 653.61,1054.59 653.46,1053.25"/>
    </edge>
    <edge id=":10655969906_7" function="internal">
        <lane id=":10655969906_7_0" index="0" allow="delivery bicycle pedestrian" speed="5.56" length="10.68" shape="651.00,1057.27 653.90,1056.71 656.23,1057.24 657.98,1058.85 659.16,1061.56"/>
    </edge>
    <edge id=":10655969906_8" function="internal">
        <lane id=":10655969906_8_0" index="0" allow="delivery bicycle pedestrian" speed="5.56" length="4.82" shape="651.00,1057.27 652.44,1057.65 653.11,1058.29 652.99,1059.20 652.09,1060.39"/>
    </edge>
    <edge id=":10655969908_0" function="internal">
        <lane id=":10655969908_0_0" index="0" allow="delivery bicycle pedestrian" speed="5.56" length="5.05" shape="660.56,1079.23 660.00,1077.95 659.18,1077.18 658.08,1076.90 656.71,1077.13"/>
    </edge>
    <edge id=":10655969908_1" function="internal">
        <lane id=":10655969908_1_0" index="0" allow="delivery bicycle pedestrian" speed="5.56" length="9.50" shape="660.56,1079.23 658.05,1070.06"/>
    </edge>
    <edge id=":10655969908_2" function="internal">
        <lane id=":10655969908_2_0" index="0" allow="delivery bicycle pedestrian" speed="5.56" length="4.82" shape="660.56,1079.23 661.03,1077.82 661.71,1077.20 662.62,1077.38 663.74,1078.36"/>
    </edge>
    <edge id=":10655969908_3" function="internal">
        <lane id=":10655969908_3_0" index="0" allow="delivery bicycle pedestrian" speed="5.56" length="9.50" shape="661.24,1069.19 663.74,1078.36"/>
    </edge>
    <edge id=":10655969908_4" function="internal">
        <lane id=":10655969908_4_0" index="0" allow="delivery bicycle pedestrian" speed="5.56" length="10.33" shape="661.24,1069.19 661.57,1071.93 660.92,1074.17 659.30,1075.90 656.71,1077.13"/>
    </edge>
    <edge id=":10655969908_5" function="internal">
        <lane id=":10655969908_5_0" index="0" allow="delivery bicycle pedestrian" speed="5.56" length="4.82" shape="661.24,1069.19 660.77,1070.60 660.08,1071.22 659.18,1071.04 658.05,1070.06"/>
    </edge>
    <edge id=":10655969908_6" function="internal">
        <lane id=":10655969908_6_0" index="0" allow="delivery bicycle pedestrian" speed="5.56" length="5.16" shape="655.72,1073.98 657.04,1073.36 657.87,1072.51 658.21,1071.40 658.05,1070.06"/>
    </edge>
    <edge id=":10655969908_7" function="internal">
        <lane id=":10655969908_7_0" index="0" allow="delivery bicycle pedestrian" speed="5.56" length="10.52" shape="655.72,1073.98 658.57,1073.51 660.87,1074.08 662.59,1075.70 663.74,1078.36"/>
    </edge>
    <edge id=":10655969908_8" function="internal">
        <lane id=":10655969908_8_0" index="0" allow="delivery bicycle pedestrian" speed="5.56" length="4.82" shape="655.72,1073.98 657.14,1074.40 657.78,1075.06 657.64,1075.97 656.71,1077.13"/>
    </edge>
    <edge id=":10655969909_0" function="internal">
        <lane id=":10655969909_0_0" index="0" allow="delivery bicycle pedestrian" speed="5.56" length="5.13" shape="664.59,1093.97 664.02,1092.67 663.18,1091.90 662.06,1091.68 660.67,1092.00"/>
    </edge>
    <edge id=":10655969909_1" function="internal">
        <lane id=":10655969909_1_0" index="0" allow="delivery bicycle pedestrian" speed="5.56" length="9.53" shape="664.59,1093.97 662.07,1084.78"/>
    </edge>
    <edge id=":10655969909_2" function="internal">
        <lane id=":10655969909_2_0" index="0" allow="delivery bicycle pedestrian" speed="5.56" length="4.82" shape="664.59,1093.97 665.06,1092.56 665.74,1091.95 666.65,1092.13 667.77,1093.10"/>
    </edge>
    <edge id=":10655969909_3" function="internal">
        <lane id=":10655969909_3_0" index="0" allow="delivery bicycle pedestrian" speed="5.56" length="9.53" shape="665.26,1083.91 667.77,1093.10"/>
    </edge>
    <edge id=":10655969909_4" function="internal">
        <lane id=":10655969909_4_0" index="0" allow="delivery bicycle pedestrian" speed="5.56" length="10.38" shape="665.26,1083.91 665.55,1086.55 664.89,1088.78 663.26,1090.60 660.67,1092.00"/>
    </edge>
    <edge id=":10655969909_5" function="internal">
        <lane id=":10655969909_5_0" index="0" allow="delivery bicycle pedestrian" speed="5.56" length="4.82" shape="665.26,1083.91 664.79,1085.32 664.10,1085.93 663.20,1085.75 662.07,1084.78"/>
    </edge>
    <edge id=":10655969909_6" function="internal">
        <lane id=":10655969909_6_0" index="0" allow="delivery bicycle pedestrian" speed="5.56" length="5.45" shape="659.48,1088.92 660.90,1088.17 661.81,1087.23 662.20,1086.10 662.07,1084.78"/>
    </edge>
    <edge id=":10655969909_7" function="internal">
        <lane id=":10655969909_7_0" index="0" allow="delivery bicycle pedestrian" speed="5.56" length="10.86" shape="659.48,1088.92 662.42,1088.24 664.78,1088.71 666.57,1090.33 667.77,1093.10"/>
    </edge>
    <edge id=":10655969909_8" function="internal">
        <lane id=":10655969909_8_0" index="0" allow="delivery bicycle pedestrian" speed="5.56" length="4.82" shape="659.48,1088.92 660.93,1089.24 661.61,1089.86 661.53,1090.78 660.67,1092.00"/>
    </edge>
    <edge id=":10655969910_0" function="internal">
        <lane id=":10655969910_0_0" index="0" allow="delivery bicycle pedestrian" speed="5.56" length="9.56" shape="673.72,1100.72 664.92,1104.44"/>
    </edge>
    <edge id=":10655969910_1" function="internal">
        <lane id=":10655969910_1_0" index="0" allow="delivery bicycle pedestrian" speed="5.56" length="11.02" shape="673.72,1100.72 670.75,1101.50 668.35,1101.08 666.54,1099.46 665.31,1096.63"/>
    </edge>
    <edge id=":10655969910_2" function="internal">
        <lane id=":10655969910_2_0" index="0" allow="delivery bicycle pedestrian" speed="5.56" length="4.82" shape="673.72,1100.72 672.26,1100.44 671.56,1099.84 671.62,1098.92 672.44,1097.68"/>
    </edge>
    <edge id=":10655969910_3" function="internal">
        <lane id=":10655969910_3_0" index="0" allow="delivery bicycle pedestrian" speed="5.56" length="5.17" shape="668.50,1095.76 669.07,1097.09 669.92,1097.85 671.04,1098.04 672.44,1097.68"/>
    </edge>
    <edge id=":10655969910_4" function="internal">
        <lane id=":10655969910_4_0" index="0" allow="delivery bicycle pedestrian" speed="5.56" length="10.40" shape="668.50,1095.76 668.93,1098.71 668.48,1101.14 667.14,1103.05 664.92,1104.44"/>
    </edge>
    <edge id=":10655969910_5" function="internal">
        <lane id=":10655969910_5_0" index="0" allow="delivery bicycle pedestrian" speed="5.56" length="4.82" shape="668.50,1095.76 668.03,1097.17 667.34,1097.79 666.43,1097.61 665.31,1096.63"/>
    </edge>
    <edge id=":10655969910_6" function="internal">
        <lane id=":10655969910_6_0" index="0" allow="delivery bicycle pedestrian" speed="5.56" length="5.59" shape="663.63,1101.40 664.74,1100.68 665.39,1099.64 665.58,1098.29 665.31,1096.63"/>
    </edge>
    <edge id=":10655969910_7" function="internal">
        <lane id=":10655969910_7_0" index="0" allow="delivery bicycle pedestrian" speed="5.56" length="9.56" shape="663.63,1101.40 672.44,1097.68"/>
    </edge>
    <edge id=":10655969910_8" function="internal">
        <lane id=":10655969910_8_0" index="0" allow="delivery bicycle pedestrian" speed="5.56" length="4.82" shape="663.63,1101.40 665.10,1101.68 665.80,1102.28 665.74,1103.20 664.92,1104.44"/>
    </edge>
    <edge id=":10655969911_0" function="internal">
        <lane id=":10655969911_0_0" index="0" allow="delivery bicycle pedestrian" speed="5.56" length="5.11" shape="652.95,1051.38 652.39,1050.08 651.55,1049.32 650.44,1049.08 649.05,1049.37"/>
    </edge>
    <edge id=":10655969911_1" function="internal">
        <lane id=":10655969911_1_0" index="0" allow="delivery bicycle pedestrian" speed="5.56" length="10.37" shape="652.95,1051.38 652.55,1048.48 653.07,1046.12 654.52,1044.30 656.89,1043.00"/>
    </edge>
    <edge id=":10655969911_2" function="internal">
        <lane id=":10655969911_2_0" index="0" allow="delivery bicycle pedestrian" speed="5.56" length="4.82" shape="652.95,1051.38 653.42,1049.97 654.11,1049.36 655.01,1049.54 656.14,1050.51"/>
    </edge>
    <edge id=":10655969911_3" function="internal">
        <lane id=":10655969911_3_0" index="0" allow="delivery bicycle pedestrian" speed="5.56" length="5.36" shape="658.01,1046.11 656.84,1046.76 656.14,1047.72 655.91,1048.97 656.14,1050.51"/>
    </edge>
    <edge id=":10655969911_4" function="internal">
        <lane id=":10655969911_4_0" index="0" allow="delivery bicycle pedestrian" speed="5.56" length="9.53" shape="658.01,1046.11 649.05,1049.37"/>
    </edge>
    <edge id=":10655969911_5" function="internal">
        <lane id=":10655969911_5_0" index="0" allow="delivery bicycle pedestrian" speed="5.56" length="4.82" shape="658.01,1046.11 656.56,1045.75 655.90,1045.12 656.00,1044.20 656.89,1043.00"/>
    </edge>
    <edge id=":10655969911_6" function="internal">
        <lane id=":10655969911_6_0" index="0" allow="delivery bicycle pedestrian" speed="5.56" length="9.55" shape="647.91,1046.28 656.89,1043.00"/>
    </edge>
    <edge id=":10655969911_7" function="internal">
        <lane id=":10655969911_7_0" index="0" allow="delivery bicycle pedestrian" speed="5.56" length="10.77" shape="647.91,1046.28 650.84,1045.66 653.18,1046.16 654.95,1047.77 656.14,1050.51"/>
    </edge>
    <edge id=":10655969911_8" function="internal">
        <lane id=":10655969911_8_0" index="0" allow="delivery bicycle pedestrian" speed="5.56" length="4.82" shape="647.91,1046.28 649.36,1046.62 650.03,1047.26 649.93,1048.17 649.05,1049.37"/>
    </edge>
    <edge id=":1070469776_0" function="internal">
        <lane id=":1070469776_0_0" index="0" allow="delivery bicycle pedestrian" speed="5.56" length="5.04" shape="1454.55,1534.75 1453.85,1533.56 1452.93,1532.89 1451.81,1532.75 1450.47,1533.14"/>
    </edge>
    <edge id=":1070469776_1" function="internal">
        <lane id=":1070469776_1_0" index="0" allow="delivery bicycle pedestrian" speed="5.56" length="10.28" shape="1454.55,1534.75 1453.83,1531.99 1454.09,1529.63 1455.35,1527.68 1457.61,1526.15"/>
    </edge>
    <edge id=":1070469776_2" function="internal">
        <lane id=":1070469776_2_0" index="0" allow="delivery bicycle pedestrian" speed="5.56" length="4.82" shape="1454.55,1534.75 1454.84,1533.29 1455.45,1532.60 1456.37,1532.66 1457.60,1533.49"/>
    </edge>
    <edge id=":1070469776_3" function="internal">
        <lane id=":1070469776_3_0" index="0" allow="delivery bicycle pedestrian" speed="5.56" length="5.18" shape="1459.05,1529.12 1457.94,1529.88 1457.33,1530.86 1457.22,1532.07 1457.60,1533.49"/>
    </edge>
    <edge id=":1070469776_4" function="internal">
        <lane id=":1070469776_4_0" index="0" allow="delivery bicycle pedestrian" speed="5.56" length="9.47" shape="1459.05,1529.12 1450.47,1533.14"/>
    </edge>
    <edge id=":1070469776_5" function="internal">
        <lane id=":1070469776_5_0" index="0" allow="delivery bicycle pedestrian" speed="5.56" length="4.82" shape="1459.05,1529.12 1457.57,1528.91 1456.84,1528.35 1456.85,1527.43 1457.61,1526.15"/>
    </edge>
    <edge id=":1070469776_6" function="internal">
        <lane id=":1070469776_6_0" index="0" allow="delivery bicycle pedestrian" speed="5.56" length="9.40" shape="1449.10,1530.14 1457.61,1526.15"/>
    </edge>
    <edge id=":1070469776_7" function="internal">
        <lane id=":1070469776_7_0" index="0" allow="delivery bicycle pedestrian" speed="5.56" length="10.51" shape="1449.10,1530.14 1451.88,1529.33 1454.22,1529.61 1456.13,1531.00 1457.60,1533.49"/>
    </edge>
    <edge id=":1070469776_8" function="internal">
        <lane id=":1070469776_8_0" index="0" allow="delivery bicycle pedestrian" speed="5.56" length="4.82" shape="1449.10,1530.14 1450.57,1530.38 1451.29,1530.96 1451.26,1531.88 1450.47,1533.14"/>
    </edge>
    <edge id=":1070469779_0" function="internal">
        <lane id=":1070469779_0_0" index="0" disallow="tram rail_urban rail rail_electric ship" speed="16.67" length="5.10" shape="1420.69,1546.75 1419.48,1547.51 1418.79,1548.46 1418.62,1549.59 1418.96,1550.90"/>
    </edge>
    <edge id=":1070469779_1" function="internal">
        <lane id=":1070469779_1_0" index="0" allow="delivery bicycle pedestrian" speed="5.56" length="4.82" shape="1420.69,1546.75 1419.22,1546.52 1418.50,1545.94 1418.53,1545.02 1419.31,1543.75"/>
    </edge>
    <edge id=":1070469779_2" function="internal">
        <lane id=":1070469779_2_0" index="0" allow="delivery bicycle pedestrian" speed="16.67" length="5.03" shape="1415.22,1542.17 1415.94,1543.35 1416.86,1544.01 1417.99,1544.14 1419.31,1543.75"/>
    </edge>
    <edge id=":1070469779_3" function="internal">
        <lane id=":1070469779_3_0" index="0" disallow="tram rail_urban rail rail_electric ship" speed="27.78" length="9.49" shape="1415.22,1542.17 1418.96,1550.90"/>
        <lane id=":1070469779_3_1" index="1" disallow="tram rail_urban rail rail_electric ship" speed="27.78" length="9.49" shape="1412.19,1543.47 1415.92,1552.20"/>
        <lane id=":1070469779_3_2" index="2" disallow="tram rail_urban rail rail_electric ship" speed="27.78" length="9.49" shape="1409.16,1544.78 1412.89,1553.49"/>
    </edge>
    <edge id=":1070469785_0" function="internal">
        <lane id=":1070469785_0_0" index="0" allow="delivery bicycle pedestrian" speed="5.56" length="5.22" shape="1487.43,1630.38 1486.78,1629.19 1485.86,1628.58 1484.67,1628.57 1483.21,1629.14"/>
    </edge>
    <edge id=":1070469785_1" function="internal">
        <lane id=":1070469785_1_0" index="0" allow="delivery bicycle pedestrian" speed="5.56" length="10.48" shape="1487.43,1630.38 1486.59,1627.24 1486.41,1624.52 1486.89,1622.24 1488.03,1620.39"/>
    </edge>
    <edge id=":1070469785_2" function="internal">
        <lane id=":1070469785_2_0" index="0" allow="delivery bicycle pedestrian" speed="5.56" length="4.82" shape="1487.43,1630.38 1487.81,1628.94 1488.45,1628.28 1489.36,1628.40 1490.55,1629.30"/>
    </edge>
    <edge id=":1070469785_3" function="internal">
        <lane id=":1070469785_3_0" index="0" allow="delivery bicycle pedestrian" speed="5.56" length="6.98" shape="1490.48,1622.60 1489.88,1623.70 1489.68,1625.18 1489.91,1627.05 1490.55,1629.30"/>
    </edge>
    <edge id=":1070469785_4" function="internal">
        <lane id=":1070469785_4_0" index="0" allow="delivery bicycle pedestrian" speed="5.56" length="9.87" shape="1490.48,1622.60 1488.57,1624.82 1487.23,1626.35 1485.70,1627.64 1483.21,1629.14"/>
    </edge>
    <edge id=":1070469785_5" function="internal">