<?xml version="1.0" encoding="UTF-8"?>

<!-- generated on Sat May 11 18:33:47 2024 by SUMO polyconvert Version 0.32.0
<?xml version="1.0" encoding="UTF-8"?>

<configuration xmlns:xsi="http://www.w3.org/2001/XMLSchema-instance" xsi:noNamespaceSchemaLocation="http://sumo.dlr.de/xsd/polyconvertConfiguration.xsd">

    <input>
        <net-file value="/tmp/tmpj6mppwqf/osm.net.xml"/>
        <osm-files value="osm_bbox.osm.xml"/>
        <osm.keep-full-type value="true"/>
        <type-file value="/opt/tools/sumo-0.32.0/data/typemap/osmPolyconvert.typ.xml"/>
    </input>

    <output>
        <output-file value="/tmp/tmpj6mppwqf/osm.poly.xml"/>
    </output>

    <processing>
        <poi-layer-offset value="5"/>
    </processing>

    <report>
        <verbose value="true"/>
    </report>

</configuration>
-->

<additional xmlns:xsi="http://www.w3.org/2001/XMLSchema-instance" xsi:noNamespaceSchemaLocation="http://sumo.dlr.de/xsd/additional_file.xsd">
    <location netOffset="-398756.96,-6183509.39" convBoundary="0.00,-2176.94,3871.40,4715.86" origBoundary="37.384411,55.767235,37.446433,55.829101" projParameter="+proj=utm +zone=37 +ellps=WGS84 +datum=WGS84 +units=m +no_defs"/>

    <poly id="100355472" type="natural.wood" color="140,196,107" fill="0" layer="-4.00" shape="3022.86,1982.21 3042.14,2003.19 3039.58,2022.46 3030.60,2033.87 3019.35,2038.34 3023.31,2095.31 3035.46,2120.91 3041.04,2151.20 3048.06,2161.81 3073.32,2176.89 3090.90,2201.25 3111.36,2255.07 3130.37,2259.52 3181.06,2254.56"/>
    <poly id="100371974" type="natural.wood" color="140,196,107" fill="0" layer="-4.00" shape="2715.68,1902.68 2721.31,1900.67 2725.49,1898.91 2733.02,1897.08 2748.67,1895.39 2761.56,1894.99 2768.58,1895.38 2776.40,1896.64 2782.78,1898.50 2792.20,1901.73 2801.06,1904.97 2807.32,1906.49 2813.93,1908.34 2820.78,1911.40 2827.08,1914.15 2837.27,1917.25 2841.53,1918.37 2852.97,1922.77 2858.71,1925.75 2864.77,1927.95 2870.60,1929.92 2878.88,1931.85 2885.46,1932.59 2888.93,1933.50 2899.68,1939.15 2908.58,1941.55 2916.28,1943.55 2926.38,1947.11 2946.34,1953.01 2960.45,1957.53 2967.54,1961.04 2974.98,1965.09 2980.25,1967.41 2987.56,1970.35 2994.37,1971.64 3002.86,1973.44 3010.90,1974.26 3017.08,1977.34 3022.86,1982.21"/>
    <poly id="100371980" type="leisure.park" color="207,245,201" fill="0" layer="-2.00" shape="2170.48,2354.20 2098.89,2418.23 2056.91,2465.10 1912.53,2570.90 1872.74,2608.28 1631.46,2891.99"/>
    <poly id="100545984" type="natural.slope" color="140,196,107" fill="0" layer="-4.00" shape="3503.01,1997.32 3498.34,1996.50 3490.32,1996.15 3480.98,1996.15 3470.32,1995.52 3438.35,1994.50 3407.92,1993.10 3388.44,1992.62 3368.34,1992.21 3353.14,1991.68 3334.89,1990.66 3322.12,1990.37 3305.49,1989.92"/>
    <poly id="100545987" type="natural.slope" color="140,196,107" fill="0" layer="-4.00" shape="2823.20,2111.77 2823.53,2113.68 2825.08,2115.92 2828.64,2119.46 2831.98,2122.23 2834.84,2122.81 2838.40,2122.58 2842.54,2123.12 2844.64,2124.92 2848.39,2129.96 2851.23,2132.88 2853.18,2133.76 2856.91,2132.32 2859.89,2131.61 2862.18,2131.92 2865.12,2133.27 2868.15,2134.91 2870.68,2136.20 2872.63,2137.57 2874.91,2140.94 2877.93,2142.36 2881.16,2143.57 2884.40,2144.78 2888.42,2146.52 2891.02,2148.03 2892.99,2150.11 2896.41,2153.17 2898.96,2155.88 2900.09,2158.63 2903.78,2161.32"/>
    <poly id="100545990" type="natural.slope" color="140,196,107" fill="0" layer="-4.00" shape="2941.57,2231.87 2939.56,2233.95 2938.29,2236.91 2938.99,2240.09 2939.49,2242.30 2939.09,2244.35 2937.29,2247.50 2937.96,2249.71 2939.17,2251.72 2940.63,2253.47 2942.57,2256.71"/>
    <poly id="100545991" type="natural.slope" color="140,196,107" fill="0" layer="-4.00" shape="3181.06,2254.56 3121.23,2254.56 3112.97,2235.42 3108.72,2226.61 3106.75,2213.90 3103.79,2203.87 3102.52,2202.74 3099.69,2199.52 3096.62,2193.64 3093.85,2189.43 3091.28,2185.76 3088.81,2182.98 3085.94,2181.71 3083.61,2181.24 3077.62,2176.22 3076.44,2174.73 3073.49,2170.80 3069.65,2166.28 3065.96,2164.49 3060.94,2162.92 3056.47,2161.69 3051.04,2161.54 3048.11,2157.97 3045.91,2155.09 3043.61,2152.04 3043.71,2148.31 3044.59,2144.02 3044.79,2141.08 3044.09,2137.63 3042.72,2132.52 3041.33,2129.70 3041.86,2125.52 3039.75,2123.08 3037.84,2121.17 3036.69,2117.56 3035.22,2115.19 3033.55,2112.47 3032.70,2110.10 3031.72,2106.12 3029.83,2101.19 3028.34,2098.38 3025.86,2094.89 3025.52,2091.96 3025.54,2088.76 3026.43,2085.01 3026.11,2082.36 3024.51,2078.93 3023.97,2074.50 3024.51,2070.67 3026.04,2067.89 3027.86,2061.53 3027.08,2058.62 3026.22,2056.16 3024.16,2051.58 3024.27,2048.30 3023.28,2044.23 3022.87,2041.49 3025.30,2038.68 3028.32,2038.43 3031.23,2037.31 3033.85,2035.02 3036.56,2032.83 3038.62,2029.86 3039.72,2026.98 3041.25,2024.11 3043.60,2017.76 3045.29,2013.63 3046.09,2009.71 3046.01,2006.33 3045.37,2001.46 3044.30,1997.76 3042.37,1994.78 3039.10,1991.84 3034.31,1988.47 3030.79,1986.25 3030.83,1984.12 3030.92,1980.30 3027.56,1977.53 3023.64,1977.35 3019.86,1975.48 3016.13,1972.11 3015.43,1968.57 3014.94,1966.53 3013.67,1965.58 3010.96,1967.69 3009.59,1969.94 3006.93,1970.44 3004.25,1969.79 3000.12,1968.38 2995.47,1967.15 2991.18,1966.89 2987.97,1966.52 2983.49,1965.12 2977.12,1962.59 2975.13,1961.22 2972.12,1958.45 2969.24,1956.91 2966.37,1955.91 2962.21,1953.07 2959.04,1950.66 2955.89,1948.69 2953.00,1947.34 2948.42,1945.57 2944.58,1944.59 2940.65,1943.89 2936.26,1942.74 2931.97,1941.86 2926.68,1940.47 2920.69,1939.01 2914.33,1937.37 2910.75,1936.57 2905.47,1934.82 2901.86,1933.04 2897.92,1931.89 2893.06,1929.51 2888.85,1928.18 2885.61,1926.83 2882.38,1925.67 2878.46,1925.58 2875.44,1925.47 2870.89,1925.31 2867.13,1924.05 2863.53,1922.37 2860.46,1920.74 2856.23,1918.62 2853.43,1916.73 2842.66,1912.53 2840.14,1911.53 2834.69,1910.32 2830.30,1909.53 2826.27,1908.19 2823.47,1906.22 2820.75,1904.24 2816.82,1903.44 2811.56,1903.20 2807.19,1902.95 2803.52,1901.52 2800.72,1899.81 2797.85,1898.89 2794.46,1898.79 2790.63,1898.26 2786.23,1896.94 2783.53,1895.76 2779.60,1895.04 2776.29,1894.14 2771.47,1893.80 2767.81,1893.18 2763.08,1892.67 2758.63,1892.41 2753.20,1892.27 2748.47,1892.20 2743.59,1892.66 2737.73,1892.98 2730.45,1894.21 2726.27,1894.30 2722.71,1894.30 2719.16,1894.91 2713.51,1896.72"/>
    <poly id="100545995" type="natural.slope" color="140,196,107" fill="0" layer="-4.00" shape="3274.24,1940.70 3291.93,1943.17 3314.14,1944.55 3363.90,1946.48 3376.77,1946.88 3392.62,1948.08 3404.10,1948.53 3418.02,1949.08 3448.28,1949.78 3463.76,1950.12 3472.27,1950.11 3487.91,1949.93 3493.85,1950.83 3499.97,1952.43 3502.63,1954.80 3503.03,1957.22 3503.06,1958.61"/>
    <poly id="100545999" type="natural.slope" color="140,196,107" fill="0" layer="-4.00" shape="2945.84,2278.99 2944.26,2279.56 2942.14,2280.59 2940.31,2282.22 2938.88,2285.91 2936.10,2288.72 2935.25,2290.42 2934.85,2292.66 2934.00,2294.44 2931.26,2295.31 2928.50,2295.19 2927.11,2296.56 2926.27,2298.88 2925.94,2299.87"/>
    <poly id="100546000" type="natural.slope" color="140,196,107" fill="0" layer="-4.00" shape="2897.17,2307.31 2894.92,2306.12 2891.19,2307.04 2886.64,2308.80 2882.94,2311.39 2878.95,2313.00 2874.51,2313.80 2868.85,2315.32 2860.58,2318.55 2855.60,2319.64 2851.83,2319.31 2847.58,2321.77 2843.71,2322.82 2835.84,2325.36 2829.35,2327.31 2824.34,2326.87 2821.68,2326.23 2818.10,2327.84 2816.78,2330.93 2811.98,2333.67 2802.18,2337.22 2790.72,2340.67 2782.42,2342.66 2774.96,2344.91 2768.34,2347.29 2758.96,2350.55 2754.12,2351.91 2745.58,2355.30 2736.90,2358.82 2730.97,2361.04 2723.39,2364.12 2717.61,2366.75 2704.86,2374.67 2701.83,2375.71 2696.84,2376.38 2688.24,2377.41 2680.67,2381.05 2675.72,2383.38 2666.34,2386.79 2661.23,2388.43 2655.44,2390.64 2649.91,2392.02 2644.77,2391.86 2642.59,2394.27 2643.76,2396.73 2642.67,2397.59 2633.55,2400.02 2621.12,2403.91 2612.58,2407.57 2605.14,2410.38 2596.88,2413.90 2588.06,2417.29 2578.12,2420.70 2572.62,2423.19 2559.40,2429.04 2550.55,2431.32 2549.58,2431.62 2541.74,2435.40 2536.37,2437.75 2531.82,2439.38 2524.49,2440.94 2519.63,2441.18 2516.01,2441.27 2511.94,2445.24 2508.82,2448.79 2501.69,2453.66 2494.83,2457.15 2489.04,2459.64 2482.45,2463.26 2478.34,2465.99 2449.19,2480.53 2446.71,2481.42 2437.91,2486.05 2429.93,2489.57 2420.15,2493.82 2415.20,2496.14 2400.47,2502.59 2395.23,2504.65 2388.73,2505.91 2381.67,2507.32 2379.12,2511.54 2378.92,2515.01 2376.07,2517.86 2370.41,2519.79 2365.46,2522.26 2359.69,2525.44 2353.80,2529.18 2349.30,2532.89 2340.21,2536.71 2333.07,2540.89 2327.05,2545.19 2319.37,2549.81 2313.73,2552.30 2307.55,2555.62 2299.44,2560.12 2294.35,2562.45 2290.06,2564.87 2284.88,2567.80 2275.40,2572.87 2271.96,2574.34 2265.78,2577.67 2258.91,2581.57 2253.30,2585.45 2249.45,2587.20 2244.66,2590.50 2240.96,2592.80 2234.02,2593.38 2228.81,2596.69 2224.44,2599.98 2217.02,2603.89 2208.90,2607.96 2200.94,2612.45 2196.30,2616.17 2186.96,2621.09 2183.65,2622.41 2178.30,2625.45 2171.32,2630.61 2166.81,2634.04 2160.63,2637.38 2156.08,2639.14 2150.84,2641.06 2146.58,2643.11 2142.48,2646.25 2142.20,2652.23 2141.97,2654.04 2141.77,2657.93 2138.37,2661.06 2133.96,2662.68 2127.61,2665.04 2122.93,2666.95 2118.20,2672.62"/>
    <poly id="100546002" type="natural.slope" color="140,196,107" fill="0" layer="-4.00" shape="2769.47,2083.10 2771.22,2085.12 2775.90,2087.07 2777.85,2088.31 2780.19,2091.10 2782.20,2094.68 2784.17,2097.05 2786.55,2098.63 2790.68,2098.54"/>
    <poly id="100546017" type="natural.slope" color="140,196,107" fill="0" layer="-4.00" shape="3342.50,2046.56 3340.56,2186.18"/>
    <poly id="100708206" type="natural.wood" color="140,196,107" fill="1" layer="-4.00" shape="1998.04,883.90 1999.15,882.79 2000.50,881.20 2001.62,879.92 2002.07,878.82 2001.48,876.79 2000.42,874.89 2000.19,873.10 2000.25,870.22 1999.52,867.46 1998.84,866.52 1996.89,868.01 1995.32,870.33 1993.84,871.32 1992.09,871.36 1991.00,870.91 1988.60,871.20 1987.11,871.95 1984.98,873.51 1983.82,875.64 1981.95,877.84 1980.71,878.95 1980.80,880.27 1982.38,881.07 1984.39,879.76 1986.51,877.49 1988.76,875.70 1990.80,875.35 1992.62,876.15 1993.38,877.88 1993.48,879.38 1994.61,881.76 1995.25,883.18 1995.76,884.60 1996.79,884.77 1998.04,883.90"/>
    <poly id="100708209" type="natural.wood" color="140,196,107" fill="1" layer="-4.00" shape="1984.08,914.70 1987.49,913.91 1988.77,913.88 1990.15,914.89 1990.71,916.38 1990.00,918.50 1988.91,920.10 1987.30,922.24 1986.01,924.53 1985.66,925.96 1987.70,926.58 1989.26,925.50 1991.41,923.87 1992.43,922.50 1994.35,920.95 1995.58,918.90 1998.41,914.26 1999.35,912.51 2000.56,909.32 2001.86,907.27 2003.26,906.11 2004.81,904.81 2006.73,903.02 2008.43,901.72 2010.15,901.08 2012.09,900.58 2014.40,899.55 2015.35,898.11 2015.21,895.33 2014.40,893.02 2012.40,891.04 2010.12,889.89 2007.74,891.44 2005.71,894.56 2003.59,897.24 2000.73,900.31 1998.16,903.08 1995.79,904.78 1994.00,905.80 1992.06,906.44 1990.62,905.80 1989.94,903.40 1991.21,901.12 1992.26,898.00 1994.64,895.41 1997.79,893.18 2000.94,891.04 2003.62,888.82 2004.88,886.26 2004.37,884.49 2002.83,883.21 2000.33,884.77 1997.73,886.24 1994.07,886.98 1991.57,888.16 1988.55,892.17 1984.90,892.62 1981.69,892.14 1977.85,892.97 1974.13,894.75 1971.26,896.60 1967.72,898.09 1964.64,899.38 1961.54,899.64 1959.01,899.61 1956.44,898.35 1953.77,897.00 1950.93,896.13 1950.99,894.53 1950.75,892.19 1950.79,889.94 1953.11,888.57 1958.56,888.07 1963.20,885.81 1966.54,883.57 1969.50,881.44 1972.02,880.82 1973.26,885.66 1975.19,887.69 1977.79,886.22 1977.42,882.66 1977.65,880.31 1974.42,878.60 1972.58,876.31 1974.68,873.53 1975.40,871.04 1971.65,863.41 1968.61,862.49 1965.78,862.00 1963.91,862.60 1960.48,864.56 1956.40,867.18 1953.14,868.48 1950.02,867.98 1948.85,866.14 1950.65,862.34 1950.60,860.09 1948.12,858.83 1944.54,858.44 1940.89,859.47 1937.08,861.15 1934.01,862.62 1930.65,864.12 1928.11,863.88 1928.36,862.48 1931.78,859.86 1936.23,856.95 1941.44,854.48 1946.65,852.11 1950.28,850.53 1952.66,851.50 1955.17,854.64 1958.61,857.10 1962.08,856.73 1965.58,853.36 1967.46,849.19 1970.05,847.54 1973.87,845.76 1978.17,844.35 1979.61,841.79 1977.67,839.10 1973.62,839.11 1971.59,840.56 1968.53,842.41 1967.54,840.09 1969.71,836.76 1970.56,832.61 1969.50,827.38 1968.25,825.81 1965.70,825.39 1962.23,825.95 1958.07,829.33 1955.05,833.05 1952.38,835.18 1948.05,835.18 1946.23,833.63 1944.25,833.59 1940.81,835.26 1937.08,836.38 1934.16,836.53 1930.75,835.39 1927.96,832.55 1924.92,831.21 1920.30,830.85 1916.78,829.05 1913.65,827.90 1909.35,829.13 1905.52,830.15 1901.12,830.81 1900.91,829.88 1905.06,826.50 1903.34,825.14 1900.48,823.79 1898.32,823.65 1896.98,826.88 1895.06,829.17 1892.54,830.07 1889.70,829.20 1888.79,826.41 1887.70,823.89 1886.97,821.00 1885.13,818.51 1882.73,816.69 1880.57,812.70 1879.50,807.10 1878.39,803.74 1877.51,802.08 1875.79,800.98 1871.56,800.71 1868.63,800.40 1866.06,803.28 1864.35,806.69 1863.49,806.15 1860.72,803.96 1856.83,798.32 1854.63,796.68 1850.43,794.06 1846.48,793.96 1831.99,794.39 1826.70,793.58 1824.78,791.93 1822.39,789.93 1819.51,787.74 1814.97,786.34 1809.98,786.36 1808.88,787.61 1810.00,791.33 1811.37,793.46 1814.50,794.71 1816.31,795.32 1816.99,796.43 1815.15,798.16 1815.69,801.44 1816.92,805.73 1818.52,810.00 1819.51,812.42 1822.74,817.89 1823.74,820.49 1824.83,822.71 1826.57,824.83 1827.13,828.85 1826.55,832.34 1826.81,835.15 1827.17,838.80 1826.98,842.84 1827.46,847.25 1829.93,848.41 1832.49,849.19 1833.29,851.33 1832.32,854.17 1832.59,857.45 1834.88,858.90 1835.11,860.96 1834.99,863.68 1834.13,867.55 1833.85,871.69 1835.24,874.66 1837.86,874.41 1840.03,870.70 1843.64,868.08 1845.16,868.70 1845.15,872.27 1848.03,874.56 1850.23,872.35 1853.39,870.77 1856.14,871.55 1858.16,873.67 1862.21,877.88 1866.21,880.14 1868.81,883.09 1869.07,886.27 1865.99,886.90 1862.95,885.47 1859.54,884.80 1856.54,885.24 1855.18,887.53 1855.96,892.58 1858.27,895.15 1864.41,896.23 1868.58,897.44 1869.94,899.57 1872.65,902.90 1879.18,904.53 1881.45,904.94 1881.43,908.13 1880.68,912.38 1880.00,915.58 1877.96,916.94 1875.00,915.03 1872.42,913.12 1869.26,915.08 1868.18,917.16 1867.48,919.15 1866.67,920.67 1867.01,923.10 1870.56,922.27 1873.26,921.09 1875.63,921.97 1878.59,923.87 1881.56,926.15 1885.03,926.26 1885.64,923.99 1883.97,920.65 1883.35,918.13 1883.94,915.49 1885.98,914.13 1889.84,914.23 1892.52,912.29 1894.95,911.58 1897.71,912.64 1898.05,915.16 1897.73,917.71 1898.27,920.79 1897.12,924.20 1893.85,925.02 1890.40,926.33 1889.14,928.69 1890.96,930.34 1895.77,930.61 1897.94,931.03 1900.98,932.46 1901.29,933.67 1899.68,937.28 1896.93,940.53 1897.55,942.86 1902.54,943.41 1906.86,942.84 1911.74,938.22 1911.48,935.04 1913.21,932.74 1915.20,933.54 1917.62,932.45 1916.90,929.47 1920.53,927.79 1922.84,926.14 1923.65,924.34 1921.65,923.26 1916.78,924.22 1913.65,927.01 1910.12,929.34 1906.96,930.72 1903.17,929.79 1902.74,927.26 1904.37,924.59 1907.45,923.40 1912.21,921.70 1916.59,920.18 1919.37,918.34 1920.82,916.06 1920.95,913.33 1918.54,910.85 1912.84,908.17 1911.68,906.88 1908.95,906.75 1907.60,909.60 1906.66,913.65 1905.59,916.03 1903.43,916.26 1902.32,913.09 1903.39,910.63 1900.56,906.20 1900.71,904.22 1904.58,900.66 1909.90,899.04 1912.76,900.37 1914.98,903.33 1917.67,905.71 1921.44,906.19 1926.88,905.50 1927.73,905.58 1932.94,907.33 1934.59,909.45 1934.84,911.98 1934.46,916.21 1934.53,919.03 1934.86,921.18 1933.51,924.03 1933.31,927.59 1934.33,931.04 1936.81,932.67 1940.48,932.69 1944.21,931.29 1947.75,929.89 1953.61,926.94 1957.59,924.22 1961.58,921.97 1962.61,921.69 1963.85,921.99 1963.71,923.87 1962.06,925.88 1959.65,927.62 1958.10,929.43 1958.05,931.69 1961.43,931.15 1964.52,930.51 1966.76,929.89 1969.95,929.54 1970.65,931.12 1969.93,932.55 1968.38,934.64 1963.35,937.19 1962.92,938.81 1964.91,939.42 1967.23,938.14 1969.19,937.44 1971.16,937.21 1973.75,935.28 1975.77,933.26 1977.63,932.18 1979.08,929.71 1978.30,928.60 1975.95,928.66 1974.70,927.56 1975.59,925.57 1977.82,924.29 1980.22,922.18 1980.64,919.72 1980.05,918.80 1978.08,918.84 1975.64,919.37 1973.31,920.08 1970.05,921.57 1967.42,921.44 1966.16,920.24 1966.29,918.09 1968.14,916.48 1971.26,913.40 1973.84,910.62 1974.23,907.14 1974.22,902.91 1974.14,899.35 1975.97,897.06 1977.57,897.11 1979.23,899.89 1980.77,901.36 1982.38,902.07 1983.64,903.54 1983.38,904.48 1980.31,905.97 1979.71,908.70 1979.79,911.89 1982.77,914.73 1984.08,914.70"/>
    <poly id="100708230" type="natural.wood" color="140,196,107" fill="1" layer="-4.00" shape="1939.88,866.12 1938.08,865.48 1936.83,865.32 1936.07,865.96 1935.61,867.09 1934.00,868.04 1933.10,868.72 1933.01,871.28 1932.89,872.24 1932.37,874.55 1932.40,875.85 1934.54,876.91 1939.33,875.84 1941.50,873.91 1944.19,871.50 1945.79,870.12 1946.42,867.75 1945.06,865.52 1943.25,864.26 1941.48,864.64 1940.78,865.52 1939.88,866.12"/>
    <poly id="100708231" type="natural.wood" color="140,196,107" fill="1" layer="-4.00" shape="1925.08,841.03 1921.21,842.87 1919.43,843.86 1918.08,845.40 1917.40,847.09 1916.66,849.09 1917.07,851.24 1919.81,849.74 1921.28,848.21 1924.12,846.46 1926.14,845.16 1927.54,843.20 1927.62,841.57 1926.53,841.17 1925.08,841.03"/>
    <poly id="100708233" type="natural.wood" color="140,196,107" fill="1" layer="-4.00" shape="1888.84,868.32 1887.64,867.18 1884.83,867.48 1882.15,868.60 1879.24,870.07 1878.56,871.14 1879.68,873.58 1882.60,873.04 1884.09,871.13 1887.80,869.05 1888.84,868.32"/>
    <poly id="100708235" type="natural.water" color="181,209,209" fill="0" layer="-4.00" shape="1900.66,1121.06 1909.00,1112.18 1912.30,1108.25 1913.60,1105.01 1914.40,1100.70 1917.08,1096.61 1919.70,1094.62 1919.82,1092.06 1921.32,1089.36 1921.28,1087.54 1922.18,1086.87 1924.60,1088.09 1927.08,1088.32 1928.61,1086.81 1928.73,1084.06 1927.86,1082.25 1925.10,1081.77 1921.80,1082.11 1921.76,1080.66 1923.75,1079.05 1924.07,1077.03 1925.66,1074.33 1927.96,1074.74 1930.71,1074.41 1934.81,1073.12 1936.55,1072.98 1938.32,1073.95 1938.73,1075.87 1939.44,1078.59 1942.39,1079.63 1946.26,1080.18 1947.95,1081.60 1951.00,1082.46 1955.93,1081.24 1958.39,1080.73 1961.42,1080.47 1963.90,1080.88 1965.40,1082.03 1967.26,1083.28 1971.67,1083.18 1974.01,1081.11 1975.13,1078.05 1976.18,1075.65 1976.48,1072.89 1977.07,1070.41 1977.55,1067.75 1975.69,1066.32 1972.70,1068.03 1968.99,1070.22 1965.02,1069.59 1963.80,1068.33 1959.75,1067.70 1956.87,1066.57 1955.27,1064.49 1954.17,1060.68 1954.49,1058.46 1956.09,1056.32 1960.33,1057.24 1965.29,1057.30 1967.45,1055.33 1968.14,1053.40 1966.42,1050.50 1966.77,1049.58 1968.36,1047.07 1966.17,1043.55 1966.84,1040.69 1966.61,1038.68 1964.48,1037.63 1961.73,1037.97 1958.88,1037.94 1955.69,1038.65 1954.92,1041.24 1953.53,1044.66 1951.36,1046.09 1949.43,1046.31 1948.11,1048.55 1945.74,1049.23 1943.73,1049.93 1942.33,1052.61 1940.39,1052.20 1938.63,1051.13 1934.13,1051.43 1931.54,1050.38 1929.48,1048.60 1925.91,1048.95 1923.62,1049.37 1921.76,1048.31 1923.37,1046.17 1927.86,1045.98 1930.90,1046.73 1935.01,1045.82 1938.93,1044.36 1938.17,1043.45 1934.81,1041.06 1936.14,1039.01 1939.82,1039.29 1943.94,1038.65 1948.14,1037.73 1950.50,1036.67 1952.45,1033.78 1955.17,1032.07 1957.88,1030.45 1961.44,1029.28 1963.56,1029.69 1967.75,1028.21 1970.55,1030.26 1972.28,1033.79 1970.17,1037.86 1970.42,1040.61 1974.21,1041.80 1977.74,1039.71 1980.51,1036.17 1984.69,1034.33 1987.09,1035.10 1989.61,1036.96 1992.95,1038.64 1995.51,1038.02 1997.55,1038.89 1998.97,1040.78 2001.79,1043.83 2004.94,1045.04 2008.74,1046.79 2009.54,1049.51 2009.61,1052.54 2007.03,1056.08 2001.53,1060.78 2001.02,1062.35 2001.36,1065.36 2001.89,1068.19 2001.80,1072.31 2000.95,1075.18 2003.11,1077.24 2005.68,1077.72 2007.48,1079.79 2009.17,1081.31 2013.66,1081.03 2015.63,1078.97 2017.38,1074.98 2016.04,1072.63 2014.24,1070.20 2010.45,1069.19 2009.68,1067.56 2013.12,1065.46 2015.86,1064.85 2015.34,1062.03 2018.53,1057.65 2020.51,1055.50 2023.61,1054.60 2026.03,1055.92 2026.71,1057.65 2025.94,1060.50 2027.48,1063.31 2031.00,1064.51 2034.29,1064.34 2037.05,1064.74 2041.40,1066.29 2044.20,1064.02 2043.55,1059.82 2042.39,1056.92 2044.53,1054.49 2047.46,1053.97 2049.51,1051.44 2051.72,1051.86 2054.34,1053.62 2058.79,1055.81 2062.25,1054.72 2064.51,1053.11 2067.56,1053.78 2069.48,1049.52 2072.28,1047.72 2075.40,1047.74 2078.68,1046.47 2081.29,1044.21 2086.01,1045.75 2090.27,1043.46 2092.22,1040.30 2096.37,1037.55 2100.09,1035.54 2104.08,1033.35 2106.39,1033.75 2109.68,1033.49 2112.65,1030.58 2115.91,1028.68 2118.24,1026.24 2120.63,1022.34 2121.28,1018.76 2124.15,1015.94 2128.31,1013.10 2131.42,1012.29 2134.17,1012.23 2135.90,1011.56 2138.93,1007.72 2142.58,1006.64 2148.84,1003.38 2153.33,999.16 2158.83,995.09 2160.59,991.66 2164.00,984.16 2166.93,980.15 2169.55,978.08 2172.74,977.18 2175.21,976.49 2178.08,973.50 2181.08,972.33 2183.68,969.52 2186.30,967.81 2189.18,965.27 2191.49,965.67 2195.71,966.03 2196.57,963.37 2201.04,958.22 2204.75,955.75 2206.08,953.99 2207.37,950.01 2209.17,948.33 2209.55,944.93 2210.76,941.51 2210.65,940.20 2213.19,938.76 2214.39,937.44 2214.12,935.69 2214.66,933.97 2217.03,931.98 2217.79,929.27 2217.68,926.99 2217.08,923.72 2218.34,920.05 2219.31,918.57 2219.44,911.35 2220.62,906.69 2221.02,903.40 2223.53,900.41 2226.23,897.42 2227.58,895.17 2227.12,892.65 2225.88,889.81 2228.71,887.64 2230.28,884.55 2229.52,879.52 2227.75,876.51 2227.46,873.83 2228.77,869.75 2231.72,867.69 2236.74,863.65 2239.96,860.94 2244.42,857.85 2245.91,856.35 2259.89,850.99 2264.08,849.19 2267.65,848.46 2270.86,847.92 2275.29,848.82 2278.95,849.67 2283.64,848.81 2289.69,844.04 2291.51,841.29 2299.15,836.14 2304.43,833.67 2309.74,831.61 2314.37,831.11 2318.35,830.37 2326.09,827.61 2330.72,824.22 2333.61,819.65 2337.15,812.47 2339.86,810.48 2342.64,806.13 2344.37,801.87 2345.25,796.81 2347.25,791.96 2351.47,786.23 2355.32,782.51 2360.16,772.96 2361.83,769.06 2362.96,764.46 2363.65,761.34 2365.47,758.60 2366.90,756.69 2367.16,752.69 2368.58,750.78 2368.72,749.02 2368.47,746.04 2371.40,742.87 2374.59,741.09 2378.13,738.96 2379.33,737.70 2383.66,731.57 2387.29,728.84 2391.47,726.40 2394.55,724.93 2397.00,724.35 2401.42,724.77 2403.77,724.59 2404.95,719.77 2406.21,715.92 2409.63,716.67 2411.99,716.79 2412.82,712.09 2409.78,710.04 2407.55,707.69 2408.12,704.33 2410.65,701.76 2416.10,696.06 2420.19,692.21 2423.17,689.04 2426.55,685.62 2429.89,682.44 2435.37,678.27 2438.91,676.08 2445.16,674.53 2449.86,671.84 2452.96,668.95 2457.65,665.63 2461.66,663.83 2466.56,662.20 2470.78,659.05 2474.13,656.46 2478.46,653.25 2481.91,652.47 2483.85,650.08 2481.55,646.85 2480.02,644.48 2479.27,642.33 2479.30,638.52 2479.33,634.65 2479.42,630.78 2477.43,627.53 2474.66,625.22"/>
    <poly id="100708250" type="natural.wood" color="140,196,107" fill="1" layer="-4.00" shape="1888.72,890.65 1890.28,891.57 1890.88,892.47 1891.49,893.99 1892.10,895.47 1893.04,896.61 1894.27,897.54 1895.35,898.38 1895.67,899.91 1895.16,900.73 1893.19,900.97 1891.32,901.01 1889.00,900.77 1888.31,899.79 1887.55,898.46 1886.60,896.90 1885.42,895.91 1883.18,894.62 1882.47,893.10 1882.77,891.60 1885.39,890.33 1887.66,890.28 1888.72,890.65"/>
    <poly id="100708269" type="natural.water" color="181,209,209" fill="0" layer="-4.00" shape="3171.32,1888.87 3169.03,1888.92 3164.29,1889.84 3160.00,1890.01 3156.32,1890.61 3151.23,1891.73 3143.56,1892.66 3135.70,1892.96 3130.30,1893.19 3126.25,1893.28 3121.61,1893.44 3117.15,1893.55 3112.46,1893.89 3106.95,1894.19 3100.82,1895.85 3097.12,1896.17 3092.44,1896.92 3088.29,1897.66 3083.88,1897.53 3079.74,1896.04 3077.21,1895.92 3074.19,1894.93 3069.97,1892.92 3067.77,1891.56 3064.98,1890.34 3062.95,1888.68 3059.97,1886.52 3057.63,1884.87 3055.30,1883.05 3052.51,1881.70 3049.59,1877.20 3045.82,1873.88 3040.86,1870.25 3037.19,1866.58 3035.67,1864.39 3031.92,1861.95 3027.01,1857.84 3023.18,1854.48 3020.75,1851.07 3019.44,1847.88 3017.79,1844.92 3015.33,1842.52 3011.47,1840.67 3008.81,1840.08 3006.50,1839.14 3004.88,1837.68 3002.11,1837.79 3000.48,1838.95 3000.01,1841.38 2998.69,1844.53 2997.21,1847.86 2995.01,1850.69 2991.76,1853.19 2986.06,1854.88 2980.63,1853.10 2976.66,1854.05 2973.85,1853.08 2972.44,1852.06 2968.44,1851.99 2965.07,1848.93 2962.77,1847.26 2960.67,1846.61 2958.71,1844.40 2957.11,1842.88 2953.62,1842.26 2950.29,1841.12 2947.79,1838.22 2944.80,1836.73 2940.46,1837.18 2935.97,1838.49 2932.17,1839.63 2926.08,1839.06 2921.39,1839.35 2916.42,1842.23 2913.45,1841.79 2909.91,1839.08 2904.60,1835.04 2900.40,1833.41 2893.62,1833.56 2889.58,1831.74 2887.05,1827.63 2889.59,1824.46 2896.39,1825.17 2900.90,1824.72 2907.46,1823.01 2911.62,1822.04 2914.95,1823.70 2920.68,1823.23 2924.17,1823.67 2926.98,1825.35 2931.71,1826.62 2936.88,1824.60 2941.05,1824.67 2947.74,1828.34 2954.19,1829.06 2959.03,1828.08 2959.11,1823.92 2953.98,1819.70 2944.68,1816.27 2941.71,1815.47 2933.51,1814.27 2924.61,1812.56 2919.39,1812.16 2911.90,1811.64 2907.36,1810.69 2901.79,1810.48 2896.70,1808.51 2889.17,1806.07 2884.98,1805.13 2880.05,1802.46 2874.96,1800.15 2870.39,1797.83 2872.75,1794.82 2876.03,1793.53 2882.78,1792.51 2889.21,1792.55 2895.31,1792.93 2902.48,1794.85 2908.28,1797.67 2913.01,1799.12 2921.57,1801.01 2929.08,1802.58 2935.20,1804.34 2941.18,1807.32 2946.27,1809.63 2949.80,1811.99 2954.20,1814.49 2958.27,1817.18 2962.15,1819.69 2965.87,1822.73 2968.57,1826.83 2971.28,1831.63 2974.64,1834.32 2978.33,1835.97 2980.99,1838.17 2983.66,1840.71 2988.37,1841.82 2990.63,1841.60 2995.07,1838.20 2996.94,1836.24 2997.40,1833.64 2996.12,1830.54 2994.91,1827.48 2991.92,1824.58 2990.19,1823.00 2985.61,1821.94 2979.77,1819.94 2972.82,1817.68 2965.31,1813.68 2959.37,1810.36 2955.92,1807.51 2953.52,1805.01 2951.03,1802.35 2946.48,1798.94 2944.81,1796.92 2943.14,1794.32 2940.95,1791.66 2937.93,1787.85 2935.33,1783.30 2932.34,1777.64 2931.53,1774.44 2931.47,1771.66 2931.54,1768.28 2931.91,1765.13 2932.49,1761.45 2932.93,1758.43 2934.90,1754.50 2936.66,1751.25 2938.74,1748.93 2941.04,1746.75 2944.07,1744.19 2944.79,1740.87 2941.59,1738.75 2935.91,1737.86 2932.16,1737.50 2929.50,1736.53 2926.30,1734.70 2922.79,1732.08 2918.17,1728.95 2914.35,1725.66 2911.21,1723.10 2907.81,1719.00 2906.37,1716.84 2903.95,1713.89 2902.23,1712.31 2899.20,1711.66 2897.36,1711.48 2894.57,1711.32 2887.89,1711.39 2882.96,1710.78 2879.54,1709.10 2876.79,1707.40 2874.17,1705.33 2872.18,1705.09 2867.70,1704.97 2864.07,1703.58 2861.11,1702.33 2857.63,1701.39 2855.27,1700.93 2851.15,1700.35 2849.44,1699.22 2848.21,1697.13 2847.97,1693.18 2847.19,1690.78 2844.67,1689.96 2841.03,1690.92 2838.82,1690.89 2836.51,1689.55 2834.20,1688.15 2832.70,1686.79 2832.21,1684.31 2830.53,1681.78 2827.80,1681.03 2824.87,1681.32 2820.90,1684.34 2819.05,1686.65 2816.83,1688.97 2811.26,1689.84 2807.32,1690.87 2805.72,1691.50 2798.13,1696.80 2796.65,1699.17 2795.45,1701.55 2793.74,1703.86 2792.04,1706.68 2789.31,1709.16 2788.32,1710.72 2787.06,1713.68 2785.45,1717.16 2784.36,1720.77 2782.47,1724.99 2781.02,1728.99 2779.55,1732.09 2778.58,1734.53 2775.77,1740.02 2771.70,1742.34"/>
    <poly id="100708315" type="natural.water" color="181,209,209" fill="0" layer="-4.00" shape="2449.78,1736.11 2440.11,1734.90 2430.80,1734.08 2423.30,1732.31 2410.29,1730.31 2402.08,1727.29 2392.58,1723.27 2374.91,1717.84 2365.08,1714.40 2358.25,1711.92 2353.39,1709.74 2346.66,1706.57 2340.28,1703.18 2335.02,1699.29 2331.04,1695.83 2326.51,1693.29 2315.07,1689.78 2298.71,1681.68 2289.13,1679.04 2279.42,1675.71 2272.14,1673.36 2262.76,1669.80 2255.12,1666.31 2242.98,1662.34 2230.14,1657.84 2223.07,1654.79 2218.77,1652.14 2210.65,1648.21 2204.84,1645.24 2195.29,1643.75 2186.67,1642.91 2179.16,1640.80 2166.14,1638.23 2160.23,1635.96 2153.18,1633.72 2149.36,1631.86 2144.71,1629.34 2142.56,1625.38 2139.99,1623.83 2134.02,1623.28 2128.44,1620.09 2124.94,1617.53 2120.43,1616.03 2116.53,1611.09 2112.55,1607.40 2107.54,1604.42 2101.82,1599.63 2097.02,1595.39 2091.75,1590.82 2088.79,1586.88 2081.57,1577.08 2077.64,1570.76 2072.81,1565.49 2067.98,1560.11 2063.12,1553.23 2058.13,1545.45 2052.57,1538.36 2046.22,1531.53 2033.70,1515.78 2025.68,1506.01 2021.17,1499.70 2015.29,1493.42 2009.89,1487.82 1997.15,1472.54 1991.11,1464.55 1986.26,1457.91 1983.65,1453.85 1980.67,1449.46 1976.42,1443.82 1973.57,1439.54 1969.27,1432.54 1963.80,1423.73 1960.10,1417.75 1957.60,1413.80 1953.39,1410.23 1946.02,1404.22 1941.54,1398.60 1935.91,1393.34 1927.10,1384.28 1922.97,1379.33 1918.97,1374.85 1913.07,1367.66 1910.10,1363.26 1907.10,1357.83 1903.98,1351.49 1900.63,1345.73 1897.65,1340.88 1892.59,1335.49 1888.00,1330.22 1884.54,1324.69 1882.27,1320.50 1878.35,1314.87 1873.50,1308.34 1869.25,1303.17 1865.95,1299.13 1859.76,1294.46 1852.80,1286.37 1848.67,1281.09 1843.75,1276.73 1840.20,1272.01 1836.77,1267.73 1833.24,1263.35 1829.90,1258.05 1826.81,1253.08 1823.29,1249.84 1820.32,1245.33 1818.12,1239.77 1814.45,1234.82 1807.87,1229.54 1804.63,1225.60 1802.65,1221.07 1800.24,1215.68 1797.23,1209.61 1796.29,1205.90 1796.03,1200.90 1796.08,1196.75 1796.70,1192.87 1798.31,1187.97 1801.83,1178.87 1803.28,1172.97 1805.62,1169.05 1811.24,1166.08"/>
    <poly id="100708372" type="natural.wood" color="140,196,107" fill="1" layer="-4.00" shape="2015.34,883.70 2018.10,882.58 2020.15,883.36 2022.42,884.14 2024.71,885.43 2027.29,886.72 2029.66,888.39 2031.29,890.54 2032.08,892.17 2033.19,894.55 2033.78,897.08 2034.05,899.34 2033.35,901.68 2031.21,903.53 2029.83,905.44 2028.29,907.35 2026.15,909.05 2024.99,907.50 2024.57,905.78 2023.66,902.13 2022.68,898.70 2020.87,895.13 2019.47,893.21 2018.24,891.96 2015.94,890.14 2014.62,888.59 2014.12,886.20 2015.34,883.70"/>
    <poly id="100708382" type="natural.wood" color="140,196,107" fill="1" layer="-4.00" shape="1930.15,845.81 1935.71,846.43 1939.57,846.53 1940.92,848.28 1940.98,850.73 1938.86,852.75 1936.30,851.96 1934.41,851.54 1930.32,853.22 1928.00,854.87 1924.76,856.91 1922.77,856.30 1921.06,855.87 1920.66,854.67 1921.38,853.15 1923.88,851.68 1925.71,849.20 1927.72,846.52 1930.15,845.81"/>