<?xml version="1.0" encoding="UTF-8"?>

<!-- generated on Sat May 11 18:33:47 2024 by SUMO duarouter Version 0.32.0
<?xml version="1.0" encoding="UTF-8"?>

<configuration xmlns:xsi="http://www.w3.org/2001/XMLSchema-instance" xsi:noNamespaceSchemaLocation="http://sumo.dlr.de/xsd/duarouterConfiguration.xsd">

    <input>
        <net-file value="osm.net.xml"/>
        <route-files value="osm.passenger.trips.xml"/>
    </input>

    <output>
        <output-file value="osm.passenger.rou.xml"/>
        <alternatives-output value="osm.passenger.rou.alt.xml"/>
    </output>

    <processing>
        <ignore-errors value="true"/>
    </processing>

    <time>
        <begin value="0"/>
        <end value="3600.0"/>
    </time>

    <report>
        <no-warnings value="true"/>
        <no-step-log value="true"/>
    </report>

</configuration>
-->

<routes xmlns:xsi="http://www.w3.org/2001/XMLSchema-instance" xsi:noNamespaceSchemaLocation="http://sumo.dlr.de/xsd/routes_file.xsd">
    <vType id="passenger" speedFactor="normc(1.00,0.10,0.20,2.00)" vClass="passenger"/>
    <vehicle id="veh0" type="passenger" depart="0.00" departLane="best">
        <route edges="23254552#2 808404758 23254763#0 23254763#2 23254763#3 1167747356#1 1052675058 1052675059 83861789#0 1052675057 83861790 1052675056#0 1052675056#1 1052675055#0 83861792 1233933462#0 1233933462#1 1233933462#2 1157849034 681217511#0 429392333#0 429392333#1 429392333#2 -1092717625 -1157849036#1"/>
    </vehicle>
    <vehicle id="veh1" type="passenger" depart="6.06" departLane="best">
        <route edges="1084501317 1158086293#1 435282156 435282157#0 435282157#2 1157853223#1 429392335 429392330#0 429392330#1 429392330#2 23254755#0 1052675054#0-AddedOnRampEdge 1052675054#0 1052675054#1 1052675053#0 1052675053#1 681217521#0 1052675052 1052675050 1052675049 83861791#0 83861791#1 83861791#2 83861791#3 1160736370 23254522#0 23254522#0-AddedOffRampEdge 28218245#0 28218245#1 28218245#2 108126135 120840398 -610008340 -249215885#4 -249215885#3 -249215885#1 -249215885#0 -610008329 -41747645#1 -41747645#0 -41747641#1 -1240515120 -41747814#0 -1240515122#3 -1240515122#0 -1240515123#4 -1240515123#3 -1240515123#2 -1240515123#1 -1240515124#1 -1240515125#1 -1240515125#0 -1240515126#1 -1240515126#0 -1240515127#1 -1240515128 -1240515131#1 24405216#1 435282163#0 -435282163#1"/>
    </vehicle>
    <vehicle id="veh2" type="passenger" depart="12.12" departLane="best">
        <route edges="624227616#1 624227615#0 624227615#1 610008342 624227612#0 624227612#1 1241233211 1241233212 435282151#0 435282152#0 435282152#1 435282152#2 435282152#4 435282152#5 435282150#0 435282150#1 23254552#0 23254552#1 23254552#2 808404758 38963644 -23254558#7 -23254558#5 -23254558#2 -1232299197 -1232299198#1 -1232299199#2 -1232299199#1 -1232299200#3 -1232299200#2 -1232299200#0 -1232299201#4"/>
    </vehicle>
    <vehicle id="veh3" type="passenger" depart="18.18" departLane="best">
        <route edges="120840398 -610008340 610008340 108126134#0 435282152#0 435282152#1 435282152#2 435282152#4 435282152#5 435282150#0 435282150#1 23254552#0 23254552#1 23254552#2 808404758 -301243903#2 -301243903#0 -1158097321 -301243902#1 -1240474934 -1158095487"/>
    </vehicle>
    <vehicle id="veh4" type="passenger" depart="24.24" departLane="best">
        <route edges="-1160736372#1 -1160736372#0 -584723260#2 -584723260#1 -435282158 -435282163#1 -24405216#2 1240515131#0 1240515128 1240515127#0 1240515126#0 1240515126#1 1240515125#0 1240515125#1 1240515124#0 1240515123#0 1240515123#2 1240515123#3 1240515123#4 1240515122#0 1240515122#2 41747814#0 1241049003 -28218243"/>
    </vehicle>
    <vehicle id="veh5" type="passenger" depart="30.30" departLane="best">
        <route edges="23254585#2 321370424 321370422#2 321370423 123306750 1158098732 1158098733#1 1158098640#1 1158098640#2 1158098640#5 123306749#1"/>
    </vehicle>
    <vehicle id="veh6" type="passenger" depart="36.36" departLane="best">
        <route edges="-768587358#1 768587358#0 768587364#0 768587364#1 1241233195#0 1241233194 768587363#0 23174018#0 23174018#2 23174018#3 23174018#5 123306750 23254585#0 23254585#2 321370424 808404757 1160736369 23254522#0 23254522#0-AddedOffRampEdge 28218245#0 28218245#1 28218245#2 108126135 120840398 -610008340 -249215885#4 -249215885#3 -249215885#1 -249215885#0 -610008329 -41747645#1 -41747645#0 -41747641#1 -1240515120 -41747814#0 -1240515122#3 -1240515122#0 -1240515123#4 -1240515123#3 -1240515123#2 -1240515123#1 -1240515124#1 1240515124#0"/>
    </vehicle>
    <vehicle id="veh7" type="passenger" depart="42.42" departLane="best">
        <route edges="435282155#0 435282155#2 1084501318#1 435282157#0 435282157#2 1157853223#1 429392335 429392330#0 429392330#1 429392330#2 23254755#0 1052675054#0-AddedOnRampEdge 1052675054#0 1052675054#1 1052675053#0 1052675053#1 681217521#0 1052675052 1052675050 1052675049 83861791#0 83861791#1 83861791#2 83861791#3 1160736370 23254539#0 23254539#1 23254539#2 435282150#0 435282150#1 120840401#0 120840401#2 321370423 28381271#0 28381271#1 28381271#3 -114551589#2 -114551589#1"/>
    </vehicle>
    <vehicle id="veh8" type="passenger" depart="48.47" departLane="best">
        <route edges="435282155#0 435282155#2 1084501318#1 435282157#0 435282157#2 1157853223#1 429392335 429392330#0 429392330#1 429392330#2 23254755#0 1052675054#0-AddedOnRampEdge 1052675054#0 1052675054#1 1052675053#0 1052675053#1 681217521#0 1052675052 1052675050 1052675049 83861791#0 83861791#1 83861791#2 83861791#3 -23254558#7 -23254558#5 -23254558#2 23254558#0"/>
    </vehicle>
    <vehicle id="veh9" type="passenger" depart="54.53" departLane="best">
        <route edges="1157849036#0 1157849036#2 429392335 429392330#0 429392330#1 429392330#2 23254755#0 1052675054#0-AddedOnRampEdge 1052675054#0 1052675054#1 1052675053#0 1052675053#1 681217521#0 1052675052 1052675050 1052675049 83861791#0 83861791#1 83861791#2 83861791#3 1160736370 23254522#0 23254522#0-AddedOffRampEdge 28218245#0 28218245#1 28218245#2 108126135 120840398 -610008340 -249215885#4 -249215885#3 -249215885#1 -249215885#0 -610008329 -41747645#1 -41747645#0 -41747641#1 -1240515120 -41747814#0 -1240515122#3 -1240515122#0 -1240515123#4 -1240515123#3 -1240515123#2 -1240515123#1 -1240515124#1 -1240515125#1 -1240515125#0 -1240515126#1 -1240515126#0 -1240515127#1 -1240515128 -1240515131#1 24405216#1 -127564517#2 -127564517#0"/>
    </vehicle>
    <vehicle id="veh11" type="passenger" depart="66.65" departLane="best">
        <route edges="-1240515125#0 1240515125#0 1240515125#1 1240515124#0 1240515123#0 1240515123#2 1240515123#3 1240515123#4 1240515122#0 1240515122#2 41747814#0 1240515120 41747641#0 41747641#2 41747645#1 610008329 249215885#0 249215885#1 249215885#2 249215885#4 610008340 108126134#0 435282152#0 435282152#1 435282152#2 435282152#4 435282152#5 435282150#0 435282150#1 23254552#0 23254552#1 23254552#2 808404758 38963644 -23254558#7 -23254558#5 -23254558#2 -1232299197 -1232299198#1 -1232299199#2 -1232299199#1 -1232299200#3 -1232299200#2 -1232299200#0 -1232299201#4 -1232299201#2 -1232299201#0 -1232299202#2 -1232299202#1"/>
    </vehicle>
    <vehicle id="veh12" type="passenger" depart="72.71" departLane="best">
        <route edges="527768888#5 1079613307 23174018#0 23174018#2 23174018#3 23174018#5 123306750 23254585#0 23254585#2 321370424 808404757 1160736369 23254522#0 23254522#0-AddedOffRampEdge 28218245#0 28218245#1 28218245#2 108126135 120840398 -610008340 -249215885#4 -249215885#3 -249215885#1 -249215885#0 -610008329 -41747645#1 -41747645#0 -41747641#1 -1240515120 -41747814#0 -1240515122#3 -1240515122#0 -1240515123#4 -1240515123#3 -1240515123#2 -1240515123#1 -1240515124#1 -1240515125#1 -1240515125#0 -1240515126#1 -1240515126#0 -1240515127#1 -1240515128 -1240515131#1 1240515131#0"/>
    </vehicle>
    <vehicle id="veh13" type="passenger" depart="78.77" departLane="best">
        <route edges="435282155#0 435282155#2 1084501318#1 435282157#0 435282157#2 1157853223#1 429392335 429392330#0 429392330#1 429392330#2 23254755#0 1052675054#0-AddedOnRampEdge 1052675054#0 1052675054#1 1052675053#0 1052675053#1 681217521#0 1052675052 1052675050 1052675049 83861791#0 83861791#1 83861791#2 83861791#3 1160736370 23254539#0 23254539#1 23254539#2 435282150#0 435282150#1 120840401#0 120840401#2 321370423 123306750 1158098732 1158098733#1 1158098640#1 1158098640#2 24405341#0 24405341#2 24405341#4 24405341#5 24405341#6"/>
    </vehicle>
    <vehicle id="veh14" type="passenger" depart="84.83" departLane="best">
        <route edges="435282157#0 435282157#2 1157853223#1 429392335 429392330#0 429392330#1 429392330#2 23254755#0 1052675054#0-AddedOnRampEdge 1052675054#0 1052675054#1 1052675053#0 1052675053#1 681217521#0 1052675052 1052675050 1052675049 83861791#0 83861791#1 83861791#2 83861791#3 1160736370 23254522#0 23254522#0-AddedOffRampEdge 28218245#0 28218245#1 28218245#2 108126135 120840398 -610008340 -249215885#4 -249215885#3 -249215885#1 -249215885#0 -610008329 -41747645#1 -41747645#0 -41747641#1 -1240515120 1241049003 1241049004"/>
    </vehicle>
    <vehicle id="veh16" type="passenger" depart="96.95" departLane="best">
        <route edges="27808806#2 27808806#6 27808806#7 27808806#8 527768888#0 527768888#1 527768888#4 527768888#5 1079613307 23174018#0 23174018#2 23174018#3 23174018#5 123306750 23254585#0 23254585#2 321370424 808404757 808404758 -301243903#2 -301243903#0 -1158097321 -301243902#1 -1240474934 -1158095487 -1158095488#0"/>
    </vehicle>
    <vehicle id="veh17" type="passenger" depart="103.01" departLane="best">
        <route edges="-1240515122#3 1240515122#2 41747814#0 1240515120 41747641#0 41747641#2 41747645#1 610008329 249215885#0 249215885#1 249215885#2 249215885#4 610008340 108126134#0 435282152#0 435282152#1 435282152#2 435282152#4 435282152#5 435282150#0 435282150#1 23254552#0 23254552#1 23254552#2 808404758 23254763#0 23254763#2 23254763#3 1167747356#1 1052675058 1052675059 83861789#0 1052675057 83861790 1052675056#0 1052675056#1 1052675055#0 83861792 1233933462#0 1233933462#1 1233933462#2 1157849034 681217511#0 429392333#0 429392333#1 429392333#2 429392335 -54179906#1"/>
    </vehicle>
    <vehicle id="veh18" type="passenger" depart="109.07" departLane="best">
        <route edges="-1240515126#1 1240515126#1 1240515125#0 1240515125#1 1240515124#0 1240515123#0 1240515123#2 1240515123#3 1240515123#4 1240515122#0 1240515122#2 41747814#0 1240515120 41747641#0 41747641#2 41747645#1 610008329 249215885#0 249215885#1 249215885#2 249215885#4 610008340 108126134#0 435282152#0 435282152#1 435282152#2 435282152#4 435282152#5 435282150#0 435282150#1 120840401#0 120840401#2 321370423 28381271#0 28381271#1 28381271#3 -114551589#2 -114551589#1 -114551589#0 -768587363#1 -1241233194 -1241233195#1 -768587364#1 -768587364#0 -768587358#1 -768587362 -540239607 -47647257 -768587357"/>
    </vehicle>
    <vehicle id="veh19" type="passenger" depart="115.13" departLane="best">
        <route edges="23254552#0 23254552#1 23254552#2 808404758 23254763#0 23254763#2 23254763#3 1167747356#1 1052675058 1052675059 83861789#0 1052675057 83861790 1052675056#0 1052675056#1 1052675055#0 83861792 1233933462#0 1233933462#1 1233933462#2 1157849034 681217511#0 1157848824#0 1157853221#1 651545779 435282149#0 435282149#1 435282149#2 23173895#0 1084501319#0"/>
    </vehicle>
    <vehicle id="veh20" type="passenger" depart="121.19" departLane="best">
        <route edges="1158095486 1158095488#1 1240474934 301243902#0 1240474933 1158097424 301243903#1 38963644 -38963644"/>
    </vehicle>
    <vehicle id="veh21" type="passenger" depart="127.25" departLane="best">
        <route edges="108126134#0 435282152#0 435282152#1 435282152#2 435282152#4 435282152#5 435282150#0 435282150#1 23254552#0 23254552#1 23254552#2 1160736369 23254522#0 23254522#0-AddedOffRampEdge 610008341 624227650 624227649#0 624227648 624227647 624227646#0 1232299204 1232299203 624227643#0"/>
    </vehicle>
    <vehicle id="veh22" type="passenger" depart="133.30" departLane="best">
        <route edges="23254585#0 23254585#2 321370424 808404757 1160736369 23254522#0 23254522#0-AddedOffRampEdge 28218245#0 28218245#1 28218245#2 108126135 120840398 -610008340 -249215885#4 -249215885#3 -249215885#1 -249215885#0 -610008329 -41747645#1 -41747645#0 -41747641#1 -1240515120 1241049003 1241049004"/>
    </vehicle>
    <vehicle id="veh23" type="passenger" depart="139.36" departLane="best">
        <route edges="-249215885#0 249215885#0 249215885#1 249215885#2 249215885#4 610008340 108126134#0 435282152#0 435282152#1 435282152#2 435282152#4 435282152#5 435282150#0 435282150#1 120840401#0 120840401#2 321370423 123306750 1158098732 1158098733#1 1158098640#1 1158098640#2 24405341#0 24405341#2 24405341#4 24405341#5 24405341#6"/>
    </vehicle>
    <vehicle id="veh26" type="passenger" depart="157.54" departLane="best">
        <route edges="127564517#0 127564517#1 -24405216#2 1240515131#0 1240515128 1240515127#0 1240515126#0 1240515126#1 1240515125#0 1240515125#1 1240515124#0 1240515123#0 1240515123#2 1240515123#3 1240515123#4 1240515122#0 1240515122#2 41747814#0 1240515120 41747641#0 41747641#2 41747645#1 610008329 249215885#0 249215885#1 249215885#2 249215885#4 610008340 108126134#0 435282152#0 435282152#1 435282152#2 435282152#4 435282152#5 435282150#0 435282150#1 23254552#0 23254552#1 23254552#2 1160736369 23254539#0 23254539#1"/>
    </vehicle>
    <vehicle id="veh27" type="passenger" depart="163.60" departLane="best">
        <route edges="527768888#1 527768888#4 527768888#5 1079613307 23174018#0 23174018#2 23174018#3 23174018#5 28381271#0"/>
    </vehicle>
    <vehicle id="veh28" type="passenger" depart="169.66" departLane="best">
        <route edges="-768587364#1 768587364#1 1241233195#0 1241233194 768587363#0 23174018#0 23174018#2 23174018#3 23174018#5 123306750 23254585#0 23254585#2 321370424 808404757 808404758 -301243903#2 -301243903#0 -1158097321 -301243902#1 -1240474934 -1158095487 -1158095488#0"/>
    </vehicle>
    <vehicle id="veh29" type="passenger" depart="175.72" departLane="best">
        <route edges="1157846525 1157846690#1 1157847213#1 1157847491#1 1092717624#2 23254755#0 1052675054#0-AddedOnRampEdge 1052675054#0 1052675054#1 1052675053#0 1052675053#1 681217521#0 1052675052 1052675050 1052675049 83861791#0 83861791#1 83861791#2 83861791#3 1160736370 23254522#0 23254522#0-AddedOffRampEdge 28218245#0 28218245#1 28218245#2 108126135 120840398 -610008340 -249215885#4 -249215885#3 -249215885#1 -249215885#0 -610008329 -41747645#1 -41747645#0 -41747641#1 -1240515120 -41747814#0 -1240515122#3 -1240515122#0 -1240515123#4 -1240515123#3 -1240515123#2 -1240515123#1 -1240515124#1 -1240515125#1 -1240515125#0 -1240515126#1 -1240515126#0 -1240515127#1 -1240515128 -1240515131#1 -762643744#1"/>
    </vehicle>
    <vehicle id="veh30" type="passenger" depart="181.78" departLane="best">
        <route edges="-584723260#1 -435282158 -435282163#1 -24405216#2 1240515131#0 1240515128 1240515127#0 1240515126#0 1240515126#1 1240515125#0 1240515125#1 1240515124#0 1240515123#0 1240515123#2 1240515123#3 1240515123#4 1240515122#0 1240515122#2 41747814#0 1240515120 41747641#0 41747641#2 41747645#1 610008329 249215885#0 249215885#1 249215885#2 249215885#4 610008340 108126134#0 435282152#0 435282152#1 435282152#2 435282152#4 435282152#5 435282150#0 435282150#1 23254552#0 23254552#1 23254552#2 1160736369 23254522#0 23254522#0-AddedOffRampEdge 610008341 624227650 624227649#0 624227648 624227647 624227646#0 1232299204 1232299203 624227643#0"/>
    </vehicle>
    <vehicle id="veh32" type="passenger" depart="193.90" departLane="best">
        <route edges="23254763#0 23254763#2 23254763#3 1167747356#1 1052675058 1052675059 83861789#0 1052675057 83861790 1052675056#0 1052675056#1 1052675055#0 83861792 1233933462#0 1233933462#1 1233933462#2 1157849034 681217511#0 429392333#0 429392333#1 429392333#2 429392335 1092993020#0 1157847211#1 1157847211#2 1157847140#1"/>
    </vehicle>
    <vehicle id="veh34" type="passenger" depart="206.02" departLane="best">
        <route edges="1079613307 23174018#0 23174018#2 23174018#3 23174018#5 123306750 23254585#0 23254585#2 321370424 808404757 1160736369 23254522#0 23254522#0-AddedOffRampEdge 28218245#0 28218245#1 28218245#2 108126135 120840398 -610008340 -249215885#4 -249215885#3 -249215885#1 -249215885#0 -610008329 -41747645#1 -41747645#0 -41747641#1 -1240515120 -41747814#0 -1240515122#3 -1240515122#0 -1240515123#4 -1240515123#3 -1240515123#2 -1240515123#1 -1240515124#1 -1240515125#1 -1240515125#0 -1240515126#1 -1240515126#0 -1240515127#1 -1240515128 -1240515131#1 24405216#1 435282163#0 681217526 584723260#0 -584723260#1"/>
    </vehicle>
    <vehicle id="veh35" type="passenger" depart="212.08" departLane="best">
        <route edges="127564517#0 127564517#1 -24405216#2 -762643744#1"/>
    </vehicle>
    <vehicle id="veh38" type="passenger" depart="230.25" departLane="best">
        <route edges="83861792 1233933462#0 1233933462#1 1233933462#2 1157849034 681217511#0 429392333#0 429392333#1 429392333#2 429392335 429392330#0 429392330#1 429392330#2 23254755#0 1052675054#0-AddedOnRampEdge 1052675054#0 1052675054#1 1052675053#0 1052675053#1 681217521#0 1052675052 1052675050 1052675049 83861791#0 83861791#1 83861791#2 83861791#3 -23254558#7 -23254558#5 -23254558#2 -1232299197 -1232299198#1 -1232299199#2 1232299199#2"/>
    </vehicle>
    <vehicle id="veh39" type="passenger" depart="236.31" departLane="best">
        <route edges="-1240515124#1 1240515124#0 1240515123#0 1240515123#2 1240515123#3 1240515123#4 1240515122#0 1240515122#2 41747814#0 1240515120 41747641#0 41747641#2 41747645#1 610008329 249215885#0 249215885#1 249215885#2 249215885#4 610008340 108126134#0 435282152#0 435282152#1 435282152#2 435282152#4 435282152#5 435282150#0 435282150#1 23254552#0 23254552#1 23254552#2 808404758 -301243903#2 -301243903#0 -1158097321 -301243902#1 -1240474934 -1158095487 -1158095488#0"/>
    </vehicle>
    <vehicle id="veh40" type="passenger" depart="242.37" departLane="best">
        <route edges="-1241049004 -28218243 1240515120 41747641#0 41747641#2 41747645#1 610008329 249215885#0 249215885#1 249215885#2 249215885#4 610008340 108126134#0 435282152#0 435282152#1 435282152#2 435282152#4 435282152#5 435282150#0 435282150#1 120840401#0 120840401#2 321370423 28381271#0 28381271#1 28381271#3 1241233193#0"/>
    </vehicle>
    <vehicle id="veh41" type="passenger" depart="248.43" departLane="best">
        <route edges="435282152#2 435282152#4 435282152#5 435282150#0 435282150#1 23254552#0 23254552#1 23254552#2 808404758 23254763#0 23254763#2 23254763#3 1167747356#1 1052675058 1052675059 83861789#0 1052675057 83861790 1052675056#0 1052675056#1 1052675055#0 83861792 1233933462#0 1233933462#1 1233933462#2 1157849034 681217511#0 1157848824#0 1157853221#1 651545779 435272950 1157853715"/>
    </vehicle>
    <vehicle id="veh42" type="passenger" depart="254.49" departLane="best">
        <route edges="83861792 1233933462#0 1233933462#1 1233933462#2 1157849034 681217511#0 429392333#0 429392333#1 429392333#2 429392335 429392330#0 429392330#1 429392330#2 23254755#0 1052675054#0-AddedOnRampEdge 1052675054#0 1052675054#1 1052675053#0 1052675053#1 681217521#0 1052675052 1052675050 1052675049 83861791#0 83861791#1 83861791#2 83861791#3 1160736370 23254522#0 23254522#0-AddedOffRampEdge 610008341 624227650 624227649#0 624227648 624227647 624227646#0 1232299204 1232299203"/>
    </vehicle>
    <vehicle id="veh45" type="passenger" depart="272.67" departLane="best">
        <route edges="-1241049004 -28218243 1240515120 41747641#0 41747641#2 41747645#1 610008329 249215885#0 249215885#1 249215885#2 249215885#4 610008340 108126134#0 435282152#0 435282152#1 435282152#2 435282152#4 435282152#5 435282150#0 435282150#1 23254552#0 23254552#1 23254552#2 808404758 23254763#0 23254763#2 23254763#3 1167747356#1 1052675058 1052675059 83861789#0 1052675057 83861790 1052675056#0 1052675056#1 1052675055#0 83861792 1233933462#0 1233933462#1 1233933462#2 1157849034 681217511#0 1157848824#0 1157853221#1 651545779 435272950 1157853715"/>
    </vehicle>
    <vehicle id="veh46" type="passenger" depart="278.73" departLane="best">
        <route edges="1232299202#0 1232299202#2 1232299201#0 1232299201#1 1232299201#3 1232299200#0 1232299200#1 1232299200#3 1232299199#0 1232299199#2 1232299198#0 1232299197 23254558#0 23254558#3 23254558#6 1160736370 23254522#0 23254522#0-AddedOffRampEdge 610008341 624227650 624227649#0"/>
    </vehicle>
    <vehicle id="veh48" type="passenger" depart="290.85" departLane="best">
        <route edges="1240515122#0 -1240515122#0 -1240515123#4 -1240515123#3 -1240515123#2 -1240515123#1 -1240515124#1 -1240515125#1 -1240515125#0 -1240515126#1 -1240515126#0 -1240515127#1 -1240515128 -1240515131#1 24405216#1 -24405216#2"/>
    </vehicle>
    <vehicle id="veh51" type="passenger" depart="309.02" departLane="best">
        <route edges="23254514 1232299206#0 1232299205#0 1232299205#1 624227619 624227618#0 624227618#1 624227618#3 624227617#0 624227617#1 624227616#0 624227616#1 624227615#0 624227615#1 610008342 624227612#0 624227612#1 1241233211 108126136 120840398 -610008340 -249215885#4 -249215885#3 -249215885#1 -249215885#0 -610008329 -41747645#1 -41747645#0 -41747641#1 -1240515120 -41747814#0 -1240515122#3 -1240515122#0 -1240515123#4 -1240515123#3 -1240515123#2 -1240515123#1 -1240515124#1 -1240515125#1 -1240515125#0 -1240515126#1 -1240515126#0 -1240515127#1 -1240515128 -1240515131#1 24405216#1 -127564517#2 -127564517#0"/>
    </vehicle>
    <vehicle id="veh52" type="passenger" depart="315.08" departLane="best">
        <route edges="429392333#1 429392333#2 429392335 429392330#0 429392330#1 429392330#2 23254755#0 1052675054#0-AddedOnRampEdge 1052675054#0 1052675054#1 1052675053#0 1052675053#1 681217521#0 1052675052 1052675050 1052675049 83861791#0 83861791#1 83861791#2 83861791#3 1160736370 23254539#0 23254539#1 23254539#2 435282150#0 435282150#1 120840401#0 120840401#2 321370423 123306750 1158098732 1158098733#1 1158098640#1 1158098640#2 1158098640#5 123306749#1"/>
    </vehicle>
    <vehicle id="veh54" type="passenger" depart="327.20" departLane="best">
        <route edges="610008342 624227612#0 624227612#1 1241233211 1241233212 435282151#0 435282152#0 435282152#1 435282152#2 435282152#4 435282152#5 435282150#0 435282150#1 23254552#0 23254552#1 23254552#2 808404758 23254763#0 23254763#2 23254763#3 1167747356#1 1052675058 1052675059 83861789#0 1052675057 83861790 1052675056#0 1052675056#1 1052675055#0 83861792 1233933462#0 1233933462#1 1233933462#2 1157849034 681217511#0 1157848824#0 1157853221#1 651545779 435282149#0 435282149#1"/>
    </vehicle>
    <vehicle id="veh56" type="passenger" depart="339.32" departLane="best">
        <route edges="610008342 624227612#0 624227612#1 1241233211 1241233212 435282151#0 435282152#0 435282152#1 435282152#2 435282152#4 435282152#5 435282150#0 435282150#1 23254552#0 23254552#1 23254552#2 1160736369 23254522#0 23254522#0-AddedOffRampEdge 610008341 624227650 624227649#0 624227648 624227647 624227646#0"/>
    </vehicle>
    <vehicle id="veh59" type="passenger" depart="357.50" departLane="best">
        <route edges="429392335 429392330#0 429392330#1 429392330#2 23254755#0 1052675054#0-AddedOnRampEdge 1052675054#0 1052675054#1 1052675053#0 1052675053#1 681217521#0 1052675052 1052675050 1052675049 83861791#0 83861791#1 83861791#2 83861791#3 1160736370 23254522#0 23254522#0-AddedOffRampEdge 28218245#0 28218245#1 28218245#2 108126135 120840398 -610008340 -249215885#4 -249215885#3 -249215885#1 -249215885#0 -610008329 -41747645#1 -41747645#0 -41747641#1 -1240515120 -41747814#0 -1240515122#3 -1240515122#0 -1240515123#4 -1240515123#3 -1240515123#2 -1240515123#1 -1240515124#1"/>
    </vehicle>
    <vehicle id="veh62" type="passenger" depart="375.68" departLane="best">
        <route edges="120840398 -610008340 -249215885#4 -249215885#3 -249215885#1 -249215885#0 -610008329 -41747645#1 -41747645#0 -41747641#1"/>
    </vehicle>
    <vehicle id="veh64" type="passenger" depart="387.80" departLane="best">
        <route edges="-435282158 -435282163#1 -24405216#2 1240515131#0 1240515128 1240515127#0 1240515126#0 1240515126#1 1240515125#0 1240515125#1 1240515124#0 1240515123#0 1240515123#2 1240515123#3 1240515123#4 1240515122#0 1240515122#2 41747814#0 1240515120 41747641#0 41747641#2 41747645#1 610008329 249215885#0 249215885#1 249215885#2 249215885#4 610008340 108126134#0 435282152#0 435282152#1 435282152#2 435282152#4 435282152#5 435282150#0 435282150#1 23254552#0 23254552#1 23254552#2 808404758 23254763#0 23254763#2 23254763#3 1167747356#1 1052675058 1052675059 83861789#0 1052675057 83861790 1052675056#0 1052675056#1 1052675055#0 83861792 1233933462#0 1233933462#1 1233933462#2 1157849034 681217511#0 429392333#0 429392333#1 429392333#2 429392335 429392330#0 429392330#1 429392330#2 23254755#0 1052675054#0-AddedOnRampEdge 1052675054#0 1052675054#1 1052675053#0"/>
    </vehicle>
    <vehicle id="veh65" type="passenger" depart="393.86" departLane="best">
        <route edges="83861791#3 1160736370 23254539#0 23254539#1 23254539#2 435282150#0 435282150#1 120840401#0 120840401#2 321370423 28381271#0 28381271#1 28381271#3 1241233193#0 1241233193#1 1241233193#2 1272919044#0 1272919044#1"/>
    </vehicle>
    <vehicle id="veh66" type="passenger" depart="399.91" departLane="best">
        <route edges="-1241049004 -28218243 1240515120 41747641#0 41747641#2 41747645#1 610008329 249215885#0 249215885#1 249215885#2 249215885#4 610008340 108126134#0 435282152#0 435282152#1 435282152#2 435282152#4 435282152#5 435282150#0 435282150#1 120840401#0 120840401#2 321370423 28381271#0 28381271#1 28381271#3 -114551589#2 -114551589#1 -114551589#0 -768587363#1 -1241233194 -1241233195#1 -768587364#1 -768587364#0 -768587358#1 -768587362 -540239607 -47647257"/>
    </vehicle>
    <vehicle id="veh67" type="passenger" depart="405.97" departLane="best">
        <route edges="1157849034 681217511#0 429392333#0 429392333#1 429392333#2 429392335 429392330#0 429392330#1 429392330#2 23254755#0 1052675054#0-AddedOnRampEdge 1052675054#0 1052675054#1 1052675053#0 1052675053#1 681217521#0 1052675052 1052675050 1052675049 83861791#0 83861791#1 83861791#2 83861791#3 1160736370 23254522#0 23254522#0-AddedOffRampEdge 28218245#0 28218245#1 28218245#2 108126135 120840398 -610008340 -249215885#4 -249215885#3 -249215885#1 -249215885#0 -610008329 -41747645#1 -41747645#0 -41747641#1 -1240515120 -41747814#0 -1240515122#3 -1240515122#0 -1240515123#4 -1240515123#3 -1240515123#2 -1240515123#1 -1240515124#1 1240515124#0"/>
    </vehicle>
    <vehicle id="veh68" type="passenger" depart="412.03" departLane="best">
        <route edges="-768587364#1 768587364#1 1241233195#0 1241233194 768587363#0 23174018#0 23174018#2 23174018#3 23174018#5 123306750 23254585#0 23254585#2 321370424 808404757 1160736369 23254522#0 23254522#0-AddedOffRampEdge 28218245#0 28218245#1 28218245#2 108126135 120840398 -610008340 -249215885#4 -249215885#3 -249215885#1 -249215885#0 -610008329 -41747645#1 -41747645#0 -41747641#1 -1240515120 -41747814#0 -1240515122#3 -1240515122#0 -1240515123#4 -1240515123#3 -1240515123#2 -1240515123#1 -1240515124#1 -1240515125#1 -1240515125#0 -1240515126#1 -1240515126#0 -1240515127#1 -1240515128 -1240515131#1 24405216#1 435282163#0 681217526 -435282158"/>
    </vehicle>
    <vehicle id="veh69" type="passenger" depart="418.09" departLane="best">
        <route edges="-1232299202#2 1232299202#2 1232299201#0 1232299201#1 1232299201#3 1232299200#0 1232299200#1 1232299200#3 1232299199#0 1232299199#2 1232299198#0 1232299197 23254558#0 23254558#3 23254558#6 1160736370 23254539#0 23254539#1 23254539#2 435282150#0 435282150#1 120840401#0 120840401#2 321370423 28381271#0 28381271#1 28381271#3 1241233193#0 1241233193#1"/>
    </vehicle>
    <vehicle id="veh72" type="passenger" depart="436.27" departLane="best">
        <route edges="1052675053#0 1052675053#1 681217521#0 1052675052 1052675050 1052675049 83861791#0 83861791#1 83861791#2 83861791#3 1160736370 23254539#0 23254539#1 23254539#2 435282150#0 435282150#1 120840401#0 120840401#2 321370423 28381271#0 28381271#1 28381271#3 -114551589#2 -114551589#1 -114551589#0 23174018#0"/>
    </vehicle>
    <vehicle id="veh73" type="passenger" depart="442.33" departLane="best">
        <route edges="-584723260#2 -584723260#1 -435282158 -435282163#1 -24405216#2 1240515131#0 1240515128 1240515127#0 1240515126#0 1240515126#1 1240515125#0 1240515125#1 -1240515125#1"/>
    </vehicle>
    <vehicle id="veh74" type="passenger" depart="448.39" departLane="best">
        <route edges="762643744#0 1240515131#0 1240515128 1240515127#0 1240515126#0 1240515126#1 1240515125#0 1240515125#1 1240515124#0 1240515123#0 1240515123#2 1240515123#3 1240515123#4 1240515122#0 1240515122#2 41747814#0 1240515120 41747641#0 41747641#2 41747645#1 610008329 249215885#0 249215885#1 249215885#2 249215885#4 610008340 108126134#0 435282152#0 435282152#1 435282152#2 435282152#4 435282152#5 435282150#0 435282150#1 23254552#0 23254552#1 23254552#2 808404758 -301243903#2 -301243903#0 -1158097321 -301243902#1 -1240474934 1240474934"/>
    </vehicle>
    <vehicle id="veh76" type="passenger" depart="460.51" departLane="best">
        <route edges="435282155#0 435282155#2 1084501318#1 435282157#0 435282157#2 1157853223#1 429392335 429392330#0 429392330#1 429392330#2 23254755#0 1052675054#0-AddedOnRampEdge 1052675054#0 1052675054#1 1052675053#0 1052675053#1 681217521#0 1052675052 1052675050 1052675049 83861791#0 83861791#1 83861791#2 83861791#3 1160736370 23254522#0 23254522#0-AddedOffRampEdge 28218245#0 28218245#1 28218245#2 108126135 120840398 -610008340 -249215885#4 -249215885#3 -249215885#1 -249215885#0"/>
    </vehicle>
    <vehicle id="veh77" type="passenger" depart="466.57" departLane="best">