<?xml version="1.0" encoding="UTF-8"?>

<!-- generated on Mon May 13 08:17:43 2024 by SUMO netconvert Version 0.32.0
<?xml version="1.0" encoding="UTF-8"?>

<configuration xmlns:xsi="http://www.w3.org/2001/XMLSchema-instance" xsi:noNamespaceSchemaLocation="http://sumo.dlr.de/xsd/netconvertConfiguration.xsd">

    <input>
        <type-files value="/opt/tools/sumo-0.32.0/data/typemap/osmNetconvert.typ.xml"/>
        <osm-files value="osm_bbox.osm.xml"/>
    </input>

    <output>
        <output-file value="/tmp/tmpm59j0vqd/osm.net.xml"/>
        <output.street-names value="true"/>
        <output.original-names value="true"/>
    </output>

    <projection>
        <proj.utm value="true"/>
    </projection>

    <tls_building>
        <tls.discard-simple value="true"/>
        <tls.join value="true"/>
        <tls.guess-signals value="true"/>
        <tls.default-type value="actuated"/>
    </tls_building>

    <ramp_guessing>
        <ramps.guess value="true"/>
    </ramp_guessing>

    <edge_removal>
        <remove-edges.by-vclass value="pedestrian"/>
        <remove-edges.isolated value="true"/>
    </edge_removal>

    <processing>
        <geometry.remove value="true"/>
        <roundabouts.guess value="true"/>
        <junctions.join value="true"/>
        <junctions.corner-detail value="5"/>
    </processing>

    <report>
        <verbose value="true"/>
    </report>

</configuration>
-->

<net version="0.27" junctionCornerDetail="5" xmlns:xsi="http://www.w3.org/2001/XMLSchema-instance" xsi:noNamespaceSchemaLocation="http://sumo.dlr.de/xsd/net_file.xsd">

    <location netOffset="-399197.40,-6184862.13" convBoundary="0.00,0.00,1333.99,887.49" origBoundary="37.384411,55.786684,37.413341,55.823131" projParameter="+proj=utm +zone=37 +ellps=WGS84 +datum=WGS84 +units=m +no_defs"/>

    <type id="highway.bridleway" priority="1" numLanes="1" speed="2.78" allow="pedestrian" oneway="1" width="2.00"/>
    <type id="highway.bus_guideway" priority="1" numLanes="1" speed="8.33" allow="bus" oneway="1"/>
    <type id="highway.cycleway" priority="1" numLanes="1" speed="5.56" allow="bicycle" oneway="0" width="1.00"/>
    <type id="highway.footway" priority="1" numLanes="1" speed="2.78" allow="pedestrian" oneway="1" width="2.00"/>
    <type id="highway.ford" priority="1" numLanes="1" speed="2.78" allow="army" oneway="0"/>
    <type id="highway.living_street" priority="3" numLanes="1" speed="2.78" disallow="tram rail_urban rail rail_electric ship" oneway="0"/>
    <type id="highway.motorway" priority="13" numLanes="2" speed="44.44" allow="private emergency authority army vip passenger hov taxi bus coach delivery truck trailer motorcycle evehicle custom1 custom2" oneway="1"/>
    <type id="highway.motorway_link" priority="12" numLanes="1" speed="22.22" allow="private emergency authority army vip passenger hov taxi bus coach delivery truck trailer motorcycle evehicle custom1 custom2" oneway="1"/>
    <type id="highway.path" priority="1" numLanes="1" speed="2.78" allow="bicycle pedestrian" oneway="1" width="2.00"/>
    <type id="highway.pedestrian" priority="1" numLanes="1" speed="2.78" allow="pedestrian" oneway="1" width="2.00"/>
    <type id="highway.primary" priority="9" numLanes="2" speed="27.78" disallow="tram rail_urban rail rail_electric ship" oneway="0"/>
    <type id="highway.primary_link" priority="8" numLanes="1" speed="22.22" disallow="tram rail_urban rail rail_electric ship" oneway="0"/>
    <type id="highway.raceway" priority="14" numLanes="2" speed="83.33" allow="vip" oneway="0"/>
    <type id="highway.residential" priority="4" numLanes="1" speed="13.89" disallow="tram rail_urban rail rail_electric ship" oneway="0"/>
    <type id="highway.secondary" priority="7" numLanes="2" speed="27.78" disallow="tram rail_urban rail rail_electric ship" oneway="0"/>
    <type id="highway.secondary_link" priority="6" numLanes="1" speed="22.22" disallow="tram rail_urban rail rail_electric ship" oneway="0"/>
    <type id="highway.service" priority="2" numLanes="1" speed="5.56" allow="delivery bicycle pedestrian" oneway="0"/>
    <type id="highway.services" priority="1" numLanes="1" speed="8.33" disallow="tram rail_urban rail rail_electric ship" oneway="0"/>
    <type id="highway.stairs" priority="1" numLanes="1" speed="1.39" allow="pedestrian" oneway="1" width="2.00"/>
    <type id="highway.step" priority="1" numLanes="1" speed="1.39" allow="pedestrian" oneway="1" width="2.00"/>
    <type id="highway.steps" priority="1" numLanes="1" speed="1.39" allow="pedestrian" oneway="1" width="2.00"/>
    <type id="highway.tertiary" priority="6" numLanes="1" speed="22.22" disallow="tram rail_urban rail rail_electric ship" oneway="0"/>
    <type id="highway.tertiary_link" priority="5" numLanes="1" speed="22.22" disallow="tram rail_urban rail rail_electric ship" oneway="0"/>
    <type id="highway.track" priority="1" numLanes="1" speed="5.56" disallow="tram rail_urban rail rail_electric ship" oneway="0"/>
    <type id="highway.trunk" priority="11" numLanes="2" speed="27.78" disallow="tram rail_urban rail rail_electric bicycle pedestrian ship" oneway="0"/>
    <type id="highway.trunk_link" priority="10" numLanes="1" speed="22.22" disallow="tram rail_urban rail rail_electric bicycle pedestrian ship" oneway="0"/>
    <type id="highway.unclassified" priority="5" numLanes="1" speed="13.89" disallow="tram rail_urban rail rail_electric ship" oneway="0"/>
    <type id="highway.unsurfaced" priority="1" numLanes="1" speed="8.33" disallow="tram rail_urban rail rail_electric ship" oneway="0"/>
    <type id="railway.light_rail" priority="15" numLanes="1" speed="27.78" allow="rail_urban" oneway="1"/>
    <type id="railway.preserved" priority="15" numLanes="1" speed="27.78" allow="rail" oneway="1"/>
    <type id="railway.rail" priority="15" numLanes="1" speed="83.33" allow="rail rail_electric" oneway="1"/>
    <type id="railway.subway" priority="15" numLanes="1" speed="27.78" allow="rail_urban" oneway="1"/>
    <type id="railway.tram" priority="15" numLanes="1" speed="13.89" allow="tram" oneway="1"/>

    <edge id=":1038524594_0" function="internal">
        <lane id=":1038524594_0_0" index="0" disallow="tram rail_urban rail rail_electric ship" speed="13.89" length="5.00" shape="923.62,400.54 924.32,401.72 925.22,402.39 926.34,402.56 927.67,402.21"/>
    </edge>
    <edge id=":1038524594_1" function="internal">
        <lane id=":1038524594_1_0" index="0" disallow="tram rail_urban rail rail_electric ship" speed="13.89" length="7.85" shape="923.62,400.54 924.87,403.05 926.17,404.68 927.53,405.42 928.94,405.26"/>
    </edge>
    <edge id=":1038524594_2" function="internal">
        <lane id=":1038524594_2_0" index="0" allow="delivery bicycle pedestrian" speed="5.56" length="4.82" shape="923.62,400.54 923.33,402.00 922.72,402.69 921.80,402.62 920.57,401.79"/>
    </edge>
    <edge id=":1038524594_3" function="internal">
        <lane id=":1038524594_3_0" index="0" allow="delivery bicycle pedestrian" speed="13.89" length="7.80" shape="920.12,408.84 921.22,407.96 921.67,406.49 921.45,404.44 920.57,401.79"/>
    </edge>
    <edge id=":1038524594_4" function="internal">
        <lane id=":1038524594_4_0" index="0" disallow="tram rail_urban rail rail_electric ship" speed="22.22" length="9.54" shape="920.12,408.84 928.94,405.26"/>
        <lane id=":1038524594_4_1" index="1" disallow="tram rail_urban rail rail_electric ship" speed="22.22" length="9.54" shape="921.36,411.90 930.21,408.31"/>
        <lane id=":1038524594_4_2" index="2" disallow="tram rail_urban rail rail_electric ship" speed="22.22" length="9.54" shape="922.61,414.95 931.47,411.36"/>
    </edge>
    <edge id=":1070469776_0" function="internal">
        <lane id=":1070469776_0_0" index="0" allow="delivery bicycle pedestrian" speed="5.56" length="4.82" shape="1014.49,178.37 1013.02,178.16 1012.29,177.60 1012.30,176.68 1013.05,175.40"/>
    </edge>
    <edge id=":1070469785_0" function="internal">
        <lane id=":1070469785_0_0" index="0" allow="delivery bicycle pedestrian" speed="5.56" length="5.22" shape="1046.98,277.65 1046.33,276.45 1045.41,275.84 1044.22,275.83 1042.77,276.40"/>
    </edge>
    <edge id=":1070469785_1" function="internal">
        <lane id=":1070469785_1_0" index="0" allow="delivery bicycle pedestrian" speed="5.56" length="10.48" shape="1046.98,277.65 1046.15,274.50 1045.97,271.79 1046.44,269.51 1047.58,267.66"/>
    </edge>
    <edge id=":1070469785_2" function="internal">
        <lane id=":1070469785_2_0" index="0" allow="delivery bicycle pedestrian" speed="5.56" length="4.82" shape="1046.98,277.65 1047.36,276.21 1048.00,275.55 1048.92,275.67 1050.10,276.56"/>
    </edge>
    <edge id=":1070469785_3" function="internal">
        <lane id=":1070469785_3_0" index="0" allow="delivery bicycle pedestrian" speed="5.56" length="6.98" shape="1050.04,269.86 1049.43,270.96 1049.24,272.45 1049.46,274.31 1050.10,276.56"/>
    </edge>
    <edge id=":1070469785_4" function="internal">
        <lane id=":1070469785_4_0" index="0" allow="delivery bicycle pedestrian" speed="5.56" length="9.87" shape="1050.04,269.86 1048.13,272.09 1046.79,273.62 1045.25,274.90 1042.77,276.40"/>
    </edge>
    <edge id=":1070469785_5" function="internal">
        <lane id=":1070469785_5_0" index="0" allow="delivery bicycle pedestrian" speed="5.56" length="4.82" shape="1050.04,269.86 1048.60,270.23 1047.71,269.99 1047.37,269.13 1047.58,267.66"/>
    </edge>
    <edge id=":1070469785_6" function="internal">
        <lane id=":1070469785_6_0" index="0" allow="delivery bicycle pedestrian" speed="5.56" length="9.35" shape="1040.65,273.80 1043.01,272.39 1044.48,271.19 1045.76,269.76 1047.58,267.66"/>
    </edge>
    <edge id=":1070469785_7" function="internal">
        <lane id=":1070469785_7_0" index="0" allow="delivery bicycle pedestrian" speed="5.56" length="11.69" shape="1040.65,273.80 1043.92,272.51 1046.58,272.54 1048.64,273.89 1050.10,276.56"/>
    </edge>
    <edge id=":1070469785_8" function="internal">
        <lane id=":1070469785_8_0" index="0" allow="delivery bicycle pedestrian" speed="5.56" length="4.90" shape="1040.65,273.80 1042.16,273.66 1043.01,274.04 1043.21,274.96 1042.77,276.40"/>
    </edge>
    <edge id=":1070469786_0" function="internal">
        <lane id=":1070469786_0_0" index="0" allow="delivery bicycle pedestrian" speed="5.56" length="9.50" shape="1060.52,296.40 1051.70,299.94"/>
    </edge>
    <edge id=":1070469786_1" function="internal">
        <lane id=":1070469786_1_0" index="0" allow="delivery bicycle pedestrian" speed="5.56" length="10.56" shape="1060.52,296.40 1057.69,297.09 1055.35,296.69 1053.52,295.19 1052.18,292.60"/>
    </edge>
    <edge id=":1070469786_2" function="internal">
        <lane id=":1070469786_2_0" index="0" allow="delivery bicycle pedestrian" speed="5.56" length="4.82" shape="1060.52,296.40 1059.06,296.10 1058.37,295.49 1058.45,294.57 1059.29,293.34"/>
    </edge>
    <edge id=":1070469786_3" function="internal">
        <lane id=":1070469786_3_0" index="0" allow="delivery bicycle pedestrian" speed="5.56" length="5.06" shape="1055.30,291.52 1055.94,292.76 1056.82,293.48 1057.93,293.67 1059.29,293.34"/>
    </edge>
    <edge id=":1070469786_4" function="internal">
        <lane id=":1070469786_4_0" index="0" allow="delivery bicycle pedestrian" speed="5.56" length="10.33" shape="1055.30,291.52 1055.87,294.34 1055.46,296.68 1054.07,298.55 1051.70,299.94"/>
    </edge>
    <edge id=":1070469786_5" function="internal">
        <lane id=":1070469786_5_0" index="0" allow="delivery bicycle pedestrian" speed="5.56" length="4.82" shape="1055.30,291.52 1054.93,292.96 1054.28,293.62 1053.37,293.50 1052.18,292.60"/>
    </edge>
    <edge id=":1070469786_6" function="internal">
        <lane id=":1070469786_6_0" index="0" allow="delivery bicycle pedestrian" speed="5.56" length="5.19" shape="1050.47,296.88 1051.63,296.19 1052.30,295.24 1052.48,294.05 1052.18,292.60"/>
    </edge>
    <edge id=":1070469786_7" function="internal">
        <lane id=":1070469786_7_0" index="0" allow="delivery bicycle pedestrian" speed="5.56" length="9.51" shape="1050.47,296.88 1059.29,293.34"/>
    </edge>
    <edge id=":1070469786_8" function="internal">
        <lane id=":1070469786_8_0" index="0" allow="delivery bicycle pedestrian" speed="5.56" length="4.82" shape="1050.47,296.88 1051.92,297.18 1052.61,297.79 1052.54,298.71 1051.70,299.94"/>
    </edge>
    <edge id=":1070469790_0" function="internal">
        <lane id=":1070469790_0_0" index="0" allow="delivery bicycle pedestrian" speed="5.56" length="7.44" shape="1065.19,255.89 1063.14,256.70 1061.75,257.35 1060.54,258.27 1059.03,259.84"/>
    </edge>
    <edge id=":1070469790_1" function="internal">
        <lane id=":1070469790_1_0" index="0" allow="delivery bicycle pedestrian" speed="5.56" length="10.37" shape="1065.19,255.89 1062.42,256.56 1060.12,256.19 1058.26,254.76 1056.86,252.28"/>
    </edge>
    <edge id=":1070469790_2" function="internal">
        <lane id=":1070469790_2_0" index="0" allow="delivery bicycle pedestrian" speed="5.56" length="4.82" shape="1065.19,255.89 1063.73,255.58 1063.04,254.97 1063.12,254.05 1063.96,252.83"/>
    </edge>
    <edge id=":1070469790_3" function="internal">
        <lane id=":1070469790_3_0" index="0" allow="delivery bicycle pedestrian" speed="5.56" length="5.01" shape="1059.94,251.08 1060.61,252.28 1061.51,252.97 1062.63,253.15 1063.96,252.83"/>
    </edge>
    <edge id=":1070469790_4" function="internal">
        <lane id=":1070469790_4_0" index="0" allow="delivery bicycle pedestrian" speed="5.56" length="9.29" shape="1059.94,251.08 1060.67,253.65 1060.76,255.97 1060.22,258.03 1059.03,259.84"/>
    </edge>
    <edge id=":1070469790_5" function="internal">
        <lane id=":1070469790_5_0" index="0" allow="delivery bicycle pedestrian" speed="5.56" length="4.82" shape="1059.94,251.08 1059.62,252.54 1059.00,253.22 1058.08,253.13 1056.86,252.28"/>
    </edge>
    <edge id=":1070469790_6" function="internal">
        <lane id=":1070469790_6_0" index="0" allow="delivery bicycle pedestrian" speed="5.56" length="5.64" shape="1056.57,257.64 1057.21,256.61 1057.47,255.37 1057.36,253.93 1056.86,252.28"/>
    </edge>
    <edge id=":1070469790_7" function="internal">
        <lane id=":1070469790_7_0" index="0" allow="delivery bicycle pedestrian" speed="5.56" length="8.96" shape="1056.57,257.64 1058.39,255.73 1059.84,254.62 1061.49,253.81 1063.96,252.83"/>
    </edge>
    <edge id=":1070469790_8" function="internal">
        <lane id=":1070469790_8_0" index="0" allow="delivery bicycle pedestrian" speed="5.56" length="4.82" shape="1056.57,257.64 1058.01,257.27 1058.90,257.51 1059.24,258.37 1059.03,259.84"/>
    </edge>
    <edge id=":1070469798_0" function="internal">
        <lane id=":1070469798_0_0" index="0" disallow="tram rail_urban rail rail_electric ship" speed="16.67" length="5.12" shape="1028.92,309.44 1027.70,310.20 1027.00,311.15 1026.83,312.28 1027.17,313.60"/>
    </edge>
    <edge id=":1070469798_1" function="internal">
        <lane id=":1070469798_1_0" index="0" allow="delivery bicycle pedestrian" speed="5.56" length="4.82" shape="1028.92,309.44 1027.45,309.20 1026.73,308.62 1026.77,307.70 1027.55,306.43"/>
    </edge>
    <edge id=":1070469798_2" function="internal">
        <lane id=":1070469798_2_0" index="0" allow="delivery bicycle pedestrian" speed="16.67" length="5.04" shape="1023.47,304.83 1024.18,306.02 1025.10,306.68 1026.22,306.82 1027.55,306.43"/>
    </edge>
    <edge id=":1070469798_3" function="internal">
        <lane id=":1070469798_3_0" index="0" disallow="tram rail_urban rail rail_electric ship" speed="27.78" length="9.56" shape="1023.47,304.83 1027.17,313.60"/>
        <lane id=":1070469798_3_1" index="1" disallow="tram rail_urban rail rail_electric ship" speed="27.78" length="9.56" shape="1020.43,306.09 1024.14,314.90"/>
        <lane id=":1070469798_3_2" index="2" disallow="tram rail_urban rail rail_electric ship" speed="27.78" length="9.56" shape="1017.38,307.36 1021.11,316.20"/>
    </edge>
    <edge id=":1070469799_0" function="internal">
        <lane id=":1070469799_0_0" index="0" allow="delivery bicycle pedestrian" speed="5.56" length="5.86" shape="1040.04,209.15 1039.25,207.51 1038.34,206.29 1037.29,205.52 1036.13,205.17"/>
    </edge>
    <edge id=":1070469799_1" function="internal">
        <lane id=":1070469799_1_0" index="0" allow="delivery bicycle pedestrian" speed="5.56" length="10.69" shape="1040.04,209.15 1039.37,206.27 1039.81,203.92 1041.37,202.11 1044.04,200.85"/>
    </edge>
    <edge id=":1070469799_2" function="internal">
        <lane id=":1070469799_2_0" index="0" allow="delivery bicycle pedestrian" speed="5.56" length="4.82" shape="1040.04,209.15 1040.36,207.69 1040.97,207.01 1041.89,207.10 1043.11,207.95"/>
    </edge>
    <edge id=":1070469799_3" function="internal">
        <lane id=":1070469799_3_0" index="0" allow="delivery bicycle pedestrian" speed="5.56" length="5.09" shape="1045.02,204.00 1043.74,204.60 1043.00,205.46 1042.79,206.58 1043.11,207.95"/>
    </edge>
    <edge id=":1070469799_4" function="internal">
        <lane id=":1070469799_4_0" index="0" allow="delivery bicycle pedestrian" speed="5.56" length="9.08" shape="1045.02,204.00 1042.45,204.81 1040.64,205.26 1038.80,205.37 1036.13,205.17"/>
    </edge>
    <edge id=":1070469799_5" function="internal">
        <lane id=":1070469799_5_0" index="0" allow="delivery bicycle pedestrian" speed="5.56" length="4.82" shape="1045.02,204.00 1043.59,203.58 1042.95,202.91 1043.10,202.00 1044.04,200.85"/>
    </edge>
    <edge id=":1070469799_6" function="internal">
        <lane id=":1070469799_6_0" index="0" allow="delivery bicycle pedestrian" speed="5.56" length="7.73" shape="1036.48,201.89 1038.75,202.05 1040.32,201.94 1041.86,201.54 1044.04,200.85"/>
    </edge>
    <edge id=":1070469799_7" function="internal">
        <lane id=":1070469799_7_0" index="0" allow="delivery bicycle pedestrian" speed="5.56" length="9.46" shape="1036.48,201.89 1038.56,202.44 1040.36,203.64 1041.88,205.48 1043.11,207.95"/>
    </edge>
    <edge id=":1070469799_8" function="internal">
        <lane id=":1070469799_8_0" index="0" allow="delivery bicycle pedestrian" speed="5.56" length="4.82" shape="1036.48,201.89 1037.62,202.84 1037.94,203.70 1037.45,204.48 1036.13,205.17"/>
    </edge>
    <edge id=":1070470552_0" function="internal">
        <lane id=":1070470552_0_0" index="0" allow="delivery bicycle pedestrian" speed="5.56" length="9.58" shape="1090.08,245.82 1081.21,249.46"/>
    </edge>
    <edge id=":1070470552_1" function="internal">
        <lane id=":1070470552_1_0" index="0" allow="delivery bicycle pedestrian" speed="5.56" length="10.52" shape="1090.08,245.82 1087.28,246.55 1084.94,246.20 1083.08,244.75 1081.68,242.21"/>
    </edge>
    <edge id=":1070470552_2" function="internal">
        <lane id=":1070470552_2_0" index="0" allow="delivery bicycle pedestrian" speed="5.56" length="4.82" shape="1090.08,245.82 1088.62,245.54 1087.92,244.94 1087.98,244.02 1088.80,242.78"/>
    </edge>
    <edge id=":1070470552_3" function="internal">
        <lane id=":1070470552_3_0" index="0" allow="delivery bicycle pedestrian" speed="5.56" length="5.05" shape="1084.77,241.05 1085.44,242.26 1086.33,242.96 1087.45,243.13 1088.80,242.78"/>
    </edge>
    <edge id=":1070470552_4" function="internal">
        <lane id=":1070470552_4_0" index="0" allow="delivery bicycle pedestrian" speed="5.56" length="10.37" shape="1084.77,241.05 1085.41,243.85 1085.02,246.19 1083.63,248.06 1081.21,249.46"/>
    </edge>
    <edge id=":1070470552_5" function="internal">
        <lane id=":1070470552_5_0" index="0" allow="delivery bicycle pedestrian" speed="5.56" length="4.82" shape="1084.77,241.05 1084.43,242.49 1083.81,243.17 1082.89,243.08 1081.68,242.21"/>
    </edge>
    <edge id=":1070470552_6" function="internal">
        <lane id=":1070470552_6_0" index="0" allow="delivery bicycle pedestrian" speed="5.56" length="5.13" shape="1079.98,246.40 1081.16,245.71 1081.83,244.78 1082.01,243.61 1081.68,242.21"/>
    </edge>
    <edge id=":1070470552_7" function="internal">
        <lane id=":1070470552_7_0" index="0" allow="delivery bicycle pedestrian" speed="5.56" length="9.53" shape="1079.98,246.40 1088.80,242.78"/>
    </edge>
    <edge id=":1070470552_8" function="internal">
        <lane id=":1070470552_8_0" index="0" allow="delivery bicycle pedestrian" speed="5.56" length="4.82" shape="1079.98,246.40 1081.44,246.71 1082.13,247.32 1082.05,248.24 1081.21,249.46"/>
    </edge>
    <edge id=":1070470554_0" function="internal">
        <lane id=":1070470554_0_0" index="0" allow="delivery bicycle pedestrian" speed="5.56" length="4.82" shape="1069.99,211.13 1070.33,209.68 1070.96,209.00 1071.88,209.10 1073.08,209.97"/>
    </edge>
    <edge id=":1353967791_0" function="internal">
        <lane id=":1353967791_0_0" index="0" allow="delivery bicycle pedestrian" speed="5.56" length="4.82" shape="714.08,137.55 712.95,136.59 712.63,135.72 713.14,134.95 714.46,134.27"/>
    </edge>
    <edge id=":1354141934_0" function="internal">
        <lane id=":1354141934_0_0" index="0" allow="delivery bicycle pedestrian" speed="5.56" length="4.82" shape="1211.67,159.64 1210.21,159.35 1209.51,158.75 1209.57,157.83 1210.39,156.59"/>
    </edge>
    <edge id=":250559649_0" function="internal">
        <lane id=":250559649_0_0" index="0" disallow="tram rail_urban rail rail_electric ship" speed="18.05" length="5.01" shape="1007.75,440.52 1007.07,439.33 1006.17,438.64 1005.05,438.46 1003.72,438.79"/>
    </edge>
    <edge id=":250559649_1" function="internal">
        <lane id=":250559649_1_0" index="0" disallow="tram rail_urban rail rail_electric ship" speed="13.89" length="12.86" shape="1007.75,440.52 1002.97,428.58"/>
    </edge>
    <edge id=":250559649_2" function="internal">
        <lane id=":250559649_2_0" index="0" disallow="tram rail_urban rail rail_electric ship" speed="13.89" length="2.41" shape="1007.75,440.52 1008.06,439.07 1008.68,438.38"/>
    </edge>
    <edge id=":250559649_11" function="internal">
        <lane id=":250559649_11_0" index="0" speed="13.89" length="2.41" shape="1008.68,438.38 1009.60,438.46 1010.82,439.31"/>
    </edge>
    <edge id=":250559649_3" function="internal">
        <lane id=":250559649_3_0" index="0" disallow="tram rail_urban rail rail_electric ship" speed="18.05" length="5.22" shape="1012.66,435.09 1011.42,435.83 1010.70,436.78 1010.50,437.94 1010.82,439.31"/>
    </edge>
    <edge id=":250559649_4" function="internal">
        <lane id=":250559649_4_0" index="0" disallow="tram rail_urban rail rail_electric ship" speed="22.22" length="9.62" shape="1012.66,435.09 1003.72,438.79"/>
        <lane id=":250559649_4_1" index="1" disallow="tram rail_urban rail rail_electric ship" speed="22.22" length="9.62" shape="1011.37,432.05 1002.49,435.73"/>
        <lane id=":250559649_4_2" index="2" disallow="tram rail_urban rail rail_electric ship" speed="22.22" length="9.62" shape="1010.08,429.01 1001.25,432.67"/>
    </edge>
    <edge id=":250559649_7" function="internal">
        <lane id=":250559649_7_0" index="0" disallow="tram rail_urban rail rail_electric ship" speed="18.05" length="7.89" shape="1010.08,429.01 1007.42,429.93 1005.34,430.16 1003.86,429.71 1002.97,428.58"/>
    </edge>
    <edge id=":250559649_8" function="internal">
        <lane id=":250559649_8_0" index="0" disallow="tram rail_urban rail rail_electric ship" speed="13.89" length="12.89" shape="1006.03,427.34 1010.82,439.31"/>
    </edge>
    <edge id=":250559649_9" function="internal">
        <lane id=":250559649_9_0" index="0" disallow="tram rail_urban rail rail_electric ship" speed="18.05" length="3.10" shape="1006.03,427.34 1006.17,428.77 1005.43,430.13 1005.34,430.20"/>
    </edge>
    <edge id=":250559649_10" function="internal">
        <lane id=":250559649_10_0" index="0" disallow="tram rail_urban rail rail_electric ship" speed="13.89" length="2.41" shape="1006.03,427.34 1005.73,428.80 1005.12,429.49"/>
    </edge>
    <edge id=":250559649_12" function="internal">
        <lane id=":250559649_12_0" index="0" speed="18.05" length="4.80" shape="1005.34,430.20 1003.78,431.43 1001.25,432.67"/>
    </edge>
    <edge id=":250559649_13" function="internal">
        <lane id=":250559649_13_0" index="0" speed="13.89" length="2.41" shape="1005.12,429.49 1004.20,429.42 1002.97,428.58"/>
    </edge>
    <edge id=":251641799_0" function="internal">
        <lane id=":251641799_0_0" index="0" disallow="tram rail_urban rail rail_electric ship" speed="27.78" length="12.86" shape="1026.36,374.73 1021.44,362.87"/>
        <lane id=":251641799_0_1" index="1" disallow="tram rail_urban rail rail_electric ship" speed="27.78" length="12.86" shape="1029.41,373.48 1024.48,361.59"/>
    </edge>
    <edge id=":251641799_2" function="internal">
        <lane id=":251641799_2_0" index="0" disallow="tram rail_urban rail rail_electric ship" speed="25.00" length="7.92" shape="1029.41,373.48 1028.52,370.79 1028.28,368.69 1028.71,367.19 1029.81,366.30"/>
    </edge>
    <edge id=":251641799_3" function="internal">
        <lane id=":251641799_3_0" index="0" disallow="tram rail_urban rail rail_electric ship" speed="25.00" length="5.09" shape="1029.41,373.48 1029.06,372.12 1029.23,370.98 1029.90,370.05 1031.08,369.34"/>
    </edge>
    <edge id=":251641799_4" function="internal">
        <lane id=":251641799_4_0" index="0" disallow="tram rail_urban rail rail_electric ship" speed="25.00" length="5.12" shape="1019.68,367.02 1020.90,366.28 1021.60,365.34 1021.78,364.21 1021.44,362.87"/>
    </edge>
    <edge id=":251641799_5" function="internal">
        <lane id=":251641799_5_0" index="0" disallow="tram rail_urban rail rail_electric ship" speed="22.22" length="9.59" shape="1019.68,367.02 1028.54,363.25"/>
        <lane id=":251641799_5_1" index="1" disallow="tram rail_urban rail rail_electric ship" speed="22.22" length="9.59" shape="1020.99,370.05 1029.81,366.30"/>
        <lane id=":251641799_5_2" index="2" disallow="tram rail_urban rail rail_electric ship" speed="22.22" length="9.59" shape="1022.29,373.08 1031.08,369.34"/>
    </edge>
    <edge id=":251642668_0" function="internal">
        <lane id=":251642668_0_0" index="0" disallow="tram rail_urban rail rail_electric ship" speed="13.89" length="12.84" shape="987.82,391.30 982.82,379.46"/>
    </edge>
    <edge id=":251642668_1" function="internal">
        <lane id=":251642668_1_0" index="0" disallow="tram rail_urban rail rail_electric ship" speed="18.05" length="2.96" shape="987.82,391.30 987.68,389.90 988.43,388.53"/>
    </edge>
    <edge id=":251642668_2" function="internal">
        <lane id=":251642668_2_0" index="0" disallow="tram rail_urban rail rail_electric ship" speed="13.89" length="2.41" shape="987.82,391.30 988.11,389.84 988.72,389.15"/>
    </edge>
    <edge id=":251642668_11" function="internal">
        <lane id=":251642668_11_0" index="0" speed="18.05" length="4.94" shape="988.43,388.53 990.07,387.20 992.58,385.91"/>
    </edge>
    <edge id=":251642668_12" function="internal">
        <lane id=":251642668_12_0" index="0" speed="13.89" length="2.41" shape="988.72,389.15 989.64,389.22 990.87,390.05"/>
    </edge>
    <edge id=":251642668_3" function="internal">
        <lane id=":251642668_3_0" index="0" disallow="tram rail_urban rail rail_electric ship" speed="18.05" length="5.09" shape="985.84,378.14 986.58,379.35 987.51,380.04 988.64,380.20 989.96,379.85"/>
    </edge>
    <edge id=":251642668_4" function="internal">
        <lane id=":251642668_4_0" index="0" disallow="tram rail_urban rail rail_electric ship" speed="13.89" length="12.94" shape="985.84,378.14 990.87,390.05"/>
    </edge>
    <edge id=":251642668_5" function="internal">
        <lane id=":251642668_5_0" index="0" disallow="tram rail_urban rail rail_electric ship" speed="13.89" length="2.41" shape="985.84,378.14 985.58,379.60 984.99,380.31"/>
    </edge>
    <edge id=":251642668_13" function="internal">
        <lane id=":251642668_13_0" index="0" speed="13.89" length="2.41" shape="984.99,380.31 984.07,380.27 982.82,379.46"/>
    </edge>
    <edge id=":251642668_6" function="internal">
        <lane id=":251642668_6_0" index="0" disallow="tram rail_urban rail rail_electric ship" speed="18.05" length="3.46" shape="983.33,382.65 983.70,382.12 983.57,381.26 983.20,380.30 982.82,379.46"/>
    </edge>
    <edge id=":251642668_7" function="internal">
        <lane id=":251642668_7_0" index="0" disallow="tram rail_urban rail rail_electric ship" speed="22.22" length="7.72" shape="983.33,382.65 989.96,379.85"/>
        <lane id=":251642668_7_1" index="1" disallow="tram rail_urban rail rail_electric ship" speed="22.22" length="7.72" shape="984.16,385.87 991.27,382.88"/>
        <lane id=":251642668_7_2" index="2" disallow="tram rail_urban rail rail_electric ship" speed="22.22" length="7.72" shape="984.99,389.10 992.58,385.91"/>
    </edge>
    <edge id=":251642668_10" function="internal">
        <lane id=":251642668_10_0" index="0" disallow="tram rail_urban rail rail_electric ship" speed="18.05" length="6.67" shape="984.99,389.10 987.13,388.44 988.82,388.38 990.07,388.92 990.87,390.05"/>
    </edge>
    <edge id=":251642669_0" function="internal">
        <lane id=":251642669_0_0" index="0" disallow="tram rail_urban rail rail_electric ship" speed="27.78" length="12.79" shape="1044.33,353.64 1049.25,365.41"/>
        <lane id=":251642669_0_1" index="1" disallow="tram rail_urban rail rail_electric ship" speed="27.78" length="12.79" shape="1041.28,354.90 1046.21,366.70"/>
        <lane id=":251642669_0_2" index="2" disallow="tram rail_urban rail rail_electric ship" speed="27.78" length="12.79" shape="1038.23,356.16 1043.18,367.99"/>
    </edge>
    <edge id=":251642669_3" function="internal">