<?xml version="1.0" encoding="UTF-8"?>

<!-- generated on Sat May 11 16:45:07 2024 by SUMO duarouter Version 0.32.0
<?xml version="1.0" encoding="UTF-8"?>

<configuration xmlns:xsi="http://www.w3.org/2001/XMLSchema-instance" xsi:noNamespaceSchemaLocation="http://sumo.dlr.de/xsd/duarouterConfiguration.xsd">

    <input>
        <net-file value="osm.net.xml"/>
        <route-files value="osm.passenger.trips.xml"/>
    </input>

    <output>
        <output-file value="osm.passenger.rou.xml"/>
        <alternatives-output value="osm.passenger.rou.alt.xml"/>
    </output>

    <processing>
        <ignore-errors value="true"/>
    </processing>

    <time>
        <begin value="0"/>
        <end value="3600.0"/>
    </time>

    <report>
        <no-warnings value="true"/>
        <no-step-log value="true"/>
    </report>

</configuration>
-->

<routes xmlns:xsi="http://www.w3.org/2001/XMLSchema-instance" xsi:noNamespaceSchemaLocation="http://sumo.dlr.de/xsd/routes_file.xsd">
    <vType id="passenger" speedFactor="normc(1.00,0.10,0.20,2.00)" vClass="passenger"/>
    <vehicle id="veh0" type="passenger" depart="0.00" departLane="best">
        <route edges="435282152#0 435282152#2 435282152#3 435282150#0 435282150#1 120840401#0 120840401#2 321370423 123306750 1158098732 1158098733#1 1158098640#1 1158098640#2 24405341#0"/>
    </vehicle>
    <vehicle id="veh2" type="passenger" depart="27.86" departLane="best">
        <route edges="23174018#0 23174018#2 23174018#4 123306750 23254585#0 23254585#2 321370424 808404757 808404758 23254763#0 23254763#2 23254763#3 1167747356#1 1052675058 1052675059 83861789#0 1052675057 83861790 1052675056#0 1052675056#1 1052675055#0 83861792 1233933462#0 1233933462#1 1233933462#2 1157849034 681217511#0 429392333#0 429392333#1 429392333#2 -1092717625"/>
    </vehicle>
    <vehicle id="veh3" type="passenger" depart="41.80" departLane="best">
        <route edges="1092717624#0 1092717624#2 429392344 1157848824#0 1157853221#1 651545779 435282149#0 435282149#1 435282149#2 23173895#0"/>
    </vehicle>
    <vehicle id="veh5" type="passenger" depart="69.66" departLane="best">
        <route edges="429392330#0 429392330#1 429392330#2 23254755#0 1052675054#0-AddedOnRampEdge 1052675054#0 1052675054#1 1052675053#0 1052675053#1 681217521#0 1052675052 1052675050 1052675049 83861791#0 83861791#1 83861791#2 48011918#0 23254763#2 23254763#3 1167747356#1 1052675058 1052675059 83861789#0 1052675057 83861790 1052675056#0 1052675056#1 1052675055#0 83861792 1233933462#0 1233933462#1 1233933462#2 1157849034 681217511#0 1157848824#0 1157853221#1 651545779 435282149#0 435282149#1 435282149#2 23173895#0"/>
    </vehicle>
    <vehicle id="veh6" type="passenger" depart="83.59" departLane="best">
        <route edges="1092717624#0 1092717624#2 23254755#0 1052675054#0-AddedOnRampEdge 1052675054#0 1052675054#1 1052675053#0 1052675053#1 681217521#0 1052675052 1052675050 1052675049 83861791#0 83861791#1 83861791#2 83861791#3 1160736370 23254522#0"/>
    </vehicle>
    <vehicle id="veh7" type="passenger" depart="97.53" departLane="best">
        <route edges="435282155#0 1084501318#1 435282157#0 435282157#2 1157853223#1 -1092717625"/>
    </vehicle>
    <vehicle id="veh8" type="passenger" depart="111.46" departLane="best">
        <route edges="435282155#0 1084501318#1 435282157#0 435282157#2 1157853223#1 429392335 429392330#0 429392330#1 429392330#2 23254755#0 1052675054#0-AddedOnRampEdge 1052675054#0 1052675054#1 1052675053#0 1052675053#1 681217521#0 1052675052 1052675050 1052675049 83861791#0 83861791#1 83861791#2 83861791#3 1160736370 23254539#0 23254539#1 23254539#2 435282150#0 435282150#1 120840401#0 120840401#2 321370423 123306750 1158098732 1158098733#1 1158098640#1 1158098640#2 24405341#0 24405341#2 24405341#4 24405341#5"/>
    </vehicle>
    <vehicle id="veh10" type="passenger" depart="139.32" departLane="best">
        <route edges="808404757 808404758 23254763#0 23254763#2 23254763#3 1167747356#1 1052675058 1052675059 83861789#0 1052675057 83861790 1052675056#0 1052675056#1 1052675055#0 83861792 1233933462#0 1233933462#1 1233933462#2 1157849034 681217511#0 1157848824#0 1157853221#1 651545779 435272950 1157853715"/>
    </vehicle>
    <vehicle id="veh11" type="passenger" depart="153.26" departLane="best">
        <route edges="-301243903#2 301243903#1 38963644 -23254558#4 -23254558#2"/>
    </vehicle>
    <vehicle id="veh12" type="passenger" depart="167.19" departLane="best">
        <route edges="435282155#0 1084501318#1 435282157#0 435282157#2 1157853223#1 429392335 429392330#0 429392330#1 429392330#2 23254755#0 1052675054#0-AddedOnRampEdge 1052675054#0 1052675054#1 1052675053#0 1052675053#1 681217521#0 1052675052 1052675050 1052675049 83861791#0 83861791#1 83861791#2 83861791#3 1160736370 23254539#0 23254539#1 23254539#2 435282150#0 435282150#1 120840401#0 120840401#2 321370423 123306750 1158098732 1158098733#1 1158098640#1 1158098640#2 24405341#0 24405341#2 24405341#4 24405341#5"/>
    </vehicle>
    <vehicle id="veh13" type="passenger" depart="181.12" departLane="best">
        <route edges="23254552#1 23254552#2 808404758 23254763#0 23254763#2 23254763#3 1167747356#1 1052675058 1052675059 83861789#0 1052675057 83861790"/>
    </vehicle>
    <vehicle id="veh15" type="passenger" depart="208.99" departLane="best">
        <route edges="435282155#0 1084501318#1 435282157#0 435282157#2 1157853223#1 429392335 429392330#0 429392330#1 429392330#2 23254755#0 1052675054#0-AddedOnRampEdge 1052675054#0 1052675054#1 1052675053#0 1052675053#1 681217521#0 1052675052 1052675050 1052675049 83861791#0 83861791#1 83861791#2 83861791#3 1160736370 23254539#0 23254539#1 23254539#2 435282150#0 435282150#1 23254552#0"/>
    </vehicle>
    <vehicle id="veh18" type="passenger" depart="250.78" departLane="best">
        <route edges="-301243902#1 301243902#0 1240474933 1158097424 301243903#1 23254763#0 23254763#2 23254763#3 1167747356#1 1052675058 1052675059 83861789#0 1052675057 83861790 1052675056#0 1052675056#1 1052675055#0"/>
    </vehicle>
    <vehicle id="veh19" type="passenger" depart="264.72" departLane="best">
        <route edges="1052675049 83861791#0 83861791#1 83861791#2 48011918#0 23254763#2 23254763#3 1167747356#1 1052675058 1052675059 83861789#0 1052675057 83861790 1052675056#0 1052675056#1 1052675055#0 83861792 1233933462#0 1233933462#1 1233933462#2 1157849034 681217511#0 429392333#0 429392333#1 429392333#2 429392335 1092993020#0"/>
    </vehicle>
    <vehicle id="veh20" type="passenger" depart="278.65" departLane="best">
        <route edges="326146757#0 1052675054#0-AddedOnRampEdge 1052675054#0 1052675054#1 1052675053#0 1052675053#1 681217521#0 1052675052 1052675050 1052675049 83861791#0 83861791#1 83861791#2 48011918#0 23254763#2 23254763#3 1167747356#1 1052675058 1052675059 83861789#0 1052675057 83861790 1052675056#0 1052675056#1 1052675055#0 83861792 1233933462#0 1233933462#1 1233933462#2 1157849034 681217511#0 1157848824#0 1157853221#1 651545779 435272950 1157853715"/>
    </vehicle>
    <vehicle id="veh21" type="passenger" depart="292.58" departLane="best">
        <route edges="1160736370 23254539#0 23254539#1 23254539#2 435282150#0 435282150#1 23254552#0 23254552#1 23254552#2 808404758 23254763#0 23254763#2 23254763#3 1167747356#1 1052675058 1052675059 83861789#0 1052675057 83861790 1052675056#0 1052675056#1 1052675055#0 83861792 1233933462#0 1233933462#1 1233933462#2 1157849034 681217511#0 429392333#0 429392333#1 429392333#2 429392335 429392330#0 429392330#1 429392330#2 23254755#0 1052675054#0-AddedOnRampEdge 1052675054#0 1052675054#1 1052675053#0 1052675053#1"/>
    </vehicle>
    <vehicle id="veh22" type="passenger" depart="306.51" departLane="best">
        <route edges="429392330#0 429392330#1 429392330#2 23254755#0 1052675054#0-AddedOnRampEdge 1052675054#0 1052675054#1 1052675053#0 1052675053#1 681217521#0 1052675052 1052675050 1052675049 83861791#0 83861791#1 83861791#2 83861791#3 1160736370 23254539#0 23254539#1 23254539#2"/>
    </vehicle>
    <vehicle id="veh23" type="passenger" depart="320.44" departLane="best">
        <route edges="1052675059 83861789#0 1052675057 83861790 1052675056#0 1052675056#1 1052675055#0 83861792 1233933462#0 1233933462#1 1233933462#2 1157849034 681217511#0 429392333#0 429392333#1 429392333#2 429392335 429392330#0 429392330#1 429392330#2 23254755#0 1052675054#0-AddedOnRampEdge 1052675054#0 1052675054#1 1052675053#0 1052675053#1 681217521#0 1052675052 1052675050 1052675049 83861791#0 83861791#1 83861791#2 83861791#3 1160736370 23254539#0 23254539#1 23254539#2 435282150#0 435282150#1 120840401#0 120840401#2 321370423 123306750 1158098732 1158098733#1 1158098640#1 1158098640#2 24405341#0 24405341#2 24405341#4 24405341#5"/>
    </vehicle>
    <vehicle id="veh24" type="passenger" depart="334.38" departLane="best">
        <route edges="1052675057 83861790 1052675056#0 1052675056#1 1052675055#0 83861792 1233933462#0 1233933462#1 1233933462#2 1157849034 681217511#0 429392333#0 429392333#1 429392333#2 429392335 429392330#0 429392330#1 429392330#2 23254755#0 1052675054#0-AddedOnRampEdge 1052675054#0 1052675054#1 1052675053#0 1052675053#1 681217521#0 1052675052 1052675050 1052675049 83861791#0 83861791#1 83861791#2 83861791#3 -38963644 -301243903#2 -301243903#0 1158097424"/>
    </vehicle>
    <vehicle id="veh25" type="passenger" depart="348.31" departLane="best">
        <route edges="23254585#0 23254585#2 321370424 321370422#2 321370423 123306750 1158098732 1158098733#1 1158098640#1 1158098640#2 24405341#0 24405341#2 24405341#4"/>
    </vehicle>
    <vehicle id="veh26" type="passenger" depart="362.24" departLane="best">
        <route edges="435282157#2 1157853223#1 429392335 429392330#0 429392330#1 429392330#2 23254755#0 1052675054#0-AddedOnRampEdge 1052675054#0 1052675054#1 1052675053#0 1052675053#1 681217521#0 1052675052 1052675050 1052675049 83861791#0 83861791#1 83861791#2 83861791#3 1160736370 23254539#0 23254539#1 23254539#2 435282150#0 435282150#1 120840401#0 120840401#2 321370423 28381271#0 28381271#1"/>
    </vehicle>
    <vehicle id="veh28" type="passenger" depart="390.11" departLane="best">
        <route edges="429392330#1 429392330#2 23254755#0 1052675054#0-AddedOnRampEdge 1052675054#0 1052675054#1 1052675053#0 1052675053#1 681217521#0 1052675052 1052675050 1052675049 83861791#0 83861791#1 83861791#2 83861791#3 1160736370 23254539#0 23254539#1 23254539#2 435282150#0 435282150#1 120840401#0 120840401#2 321370423 123306750 1158098732 1158098733#1 1158098640#1 1158098640#2 1158098640#5"/>
    </vehicle>
    <vehicle id="veh29" type="passenger" depart="404.04" departLane="best">
        <route edges="73273590 1240474934 301243902#0 1240474933 1158097424 301243903#1 23254763#0 23254763#2 23254763#3 1167747356#1"/>
    </vehicle>
    <vehicle id="veh30" type="passenger" depart="417.97" departLane="best">
        <route edges="1157849035 429392335 429392330#0 429392330#1 429392330#2 23254755#0 1052675054#0-AddedOnRampEdge 1052675054#0 1052675054#1 1052675053#0 1052675053#1 681217521#0 1052675052 1052675050 1052675049 83861791#0 83861791#1 83861791#2 48011918#0 23254763#2 23254763#3 1167747356#1 1052675058 1052675059 83861789#0 1052675057"/>
    </vehicle>
    <vehicle id="veh32" type="passenger" depart="445.84" departLane="best">
        <route edges="83861792 1233933462#0 1233933462#1 1233933462#2 1157849034 681217511#0 1157848824#0 1157853221#1 651545779 435282149#0 435282149#1 435282149#2 23173895#0"/>
    </vehicle>
    <vehicle id="veh33" type="passenger" depart="459.77" departLane="best">
        <route edges="-301243903#2 -301243903#0 -1158097321 -301243902#1 -1240474934 -1158095487"/>
    </vehicle>
    <vehicle id="veh34" type="passenger" depart="473.70" departLane="best">
        <route edges="1052675050 1052675049 83861791#0 83861791#1 83861791#2 83861791#3 1160736370 23254539#0 23254539#1 23254539#2 435282150#0 435282150#1 23254552#0 23254552#1 23254552#2"/>
    </vehicle>
    <vehicle id="veh35" type="passenger" depart="487.63" departLane="best">
        <route edges="435282155#0 1084501318#1 435282157#0 435282157#2 1157853223#1 429392335 429392330#0 429392330#1 429392330#2 23254755#0 1052675054#0-AddedOnRampEdge 1052675054#0 1052675054#1 1052675053#0 1052675053#1 681217521#0 1052675052 1052675050 1052675049 83861791#0 83861791#1 83861791#2 83861791#3 1160736370 23254539#0 23254539#1 23254539#2 435282150#0 435282150#1 120840401#0 120840401#2 321370423 123306750 1158098732 1158098733#1 1158098640#1 1158098640#2 1158098640#5"/>
    </vehicle>
    <vehicle id="veh37" type="passenger" depart="515.50" departLane="best">
        <route edges="83861792 1233933462#0 1233933462#1 1233933462#2 1157849034 681217511#0 1157848824#0 1157853221#1 651545779 435282149#0 435282149#1 435282149#2 23173895#0"/>
    </vehicle>
    <vehicle id="veh38" type="passenger" depart="529.43" departLane="best">
        <route edges="83861790 1052675056#0 1052675056#1 1052675055#0 83861792 1233933462#0 1233933462#1 1233933462#2 1157849034 681217511#0 1157848824#0 1157853221#1 651545779 435272950"/>
    </vehicle>
    <vehicle id="veh39" type="passenger" depart="543.36" departLane="best">
        <route edges="-23254558#2 23254558#0 23254558#3 1160736370 23254539#0 23254539#1 23254539#2 435282150#0 435282150#1 120840401#0 120840401#2 321370423 123306750 1158098732 1158098733#1 1158098640#1 1158098640#2 24405341#0 24405341#2 24405341#4 24405341#5"/>
    </vehicle>
    <vehicle id="veh40" type="passenger" depart="557.30" departLane="best">
        <route edges="1157849035 429392335 429392330#0 429392330#1 429392330#2 23254755#0 1052675054#0-AddedOnRampEdge 1052675054#0 1052675054#1 1052675053#0 1052675053#1 681217521#0 1052675052 1052675050 1052675049 83861791#0 83861791#1 83861791#2 83861791#3 1160736370 23254539#0 23254539#1 23254539#2 435282150#0 435282150#1 120840401#0 120840401#2 321370423 123306750 23254585#0"/>
    </vehicle>
    <vehicle id="veh41" type="passenger" depart="571.23" departLane="best">
        <route edges="1052675052 1052675050 1052675049 83861791#0 83861791#1 83861791#2 83861791#3 1160736370 23254539#0 23254539#1 23254539#2 435282150#0 435282150#1 120840401#0 120840401#2 321370423 123306750 1158098732"/>
    </vehicle>
    <vehicle id="veh42" type="passenger" depart="585.16" departLane="best">
        <route edges="23174018#0 23174018#2 23174018#4 123306750 23254585#0 23254585#2 321370424 808404757"/>
    </vehicle>
    <vehicle id="veh44" type="passenger" depart="613.03" departLane="best">
        <route edges="23174024#0 321370424 808404757 808404758 23254763#0 23254763#2 23254763#3 1167747356#1 1052675058 1052675059 83861789#0 1052675057 83861790 1052675056#0 1052675056#1 1052675055#0 83861792 1233933462#0 1233933462#1 1233933462#2 1157849034 681217511#0 429392333#0 429392333#1 429392333#2 429392335 -54179906#1"/>
    </vehicle>
    <vehicle id="veh45" type="passenger" depart="626.96" departLane="best">
        <route edges="73273590 1240474934 301243902#0 1240474933 1158097424 301243903#1 23254763#0 23254763#2 23254763#3 1167747356#1 1052675058 1052675059 83861789#0 1052675057 83861790 1052675056#0 1052675056#1 1052675055#0 83861792 1233933462#0 1233933462#1 1233933462#2 1157849034 681217511#0 1157848824#0 1157853221#1 651545779 435282149#0 435282149#1"/>
    </vehicle>
    <vehicle id="veh46" type="passenger" depart="640.89" departLane="best">
        <route edges="1157853989 435282156 435282157#0 435282157#2 1157853223#1 429392335 429392330#0 429392330#1 429392330#2 23254755#0 1052675054#0-AddedOnRampEdge 1052675054#0 1052675054#1 1052675053#0 1052675053#1 681217521#0 1052675052 1052675050 1052675049 83861791#0 83861791#1 83861791#2 83861791#3 -23254558#4 23254558#3"/>
    </vehicle>
    <vehicle id="veh47" type="passenger" depart="654.82" departLane="best">
        <route edges="301243902#0 1240474933 1158097424 301243903#1 23254763#0 23254763#2 23254763#3 1167747356#1 1052675058 1052675059 83861789#0 1052675057 83861790 1052675056#0 1052675056#1 1052675055#0 83861792 1233933462#0 1233933462#1 1233933462#2 1157849034 681217511#0 429392333#0 429392333#1 429392333#2 429392335 -54179906#1"/>
    </vehicle>
    <vehicle id="veh48" type="passenger" depart="668.75" departLane="best">
        <route edges="435282152#2 435282152#3 435282150#0 435282150#1 23254552#0 23254552#1 23254552#2 808404758 23254763#0 23254763#2 23254763#3 1167747356#1 1052675058 1052675059 83861789#0 1052675057 83861790 1052675056#0 1052675056#1 1052675055#0 83861792 1233933462#0 1233933462#1 1233933462#2 1157849034 681217511#0 1157848824#0 1157853221#1 651545779 435282149#0 435282149#1 435282149#2 23173895#0"/>
    </vehicle>
    <vehicle id="veh49" type="passenger" depart="682.69" departLane="best">
        <route edges="-1158097321 1240474933 1158097424 301243903#1 23254763#0 23254763#2 23254763#3 1167747356#1 1052675058 1052675059 83861789#0 1052675057 83861790 1052675056#0 1052675056#1 1052675055#0 83861792 1233933462#0 1233933462#1 1233933462#2 1157849034 681217511#0 1157848824#0 1157853221#1"/>
    </vehicle>
    <vehicle id="veh51" type="passenger" depart="710.55" departLane="best">
        <route edges="1157853989 435282156 435282157#0 435282157#2 1157853223#1 429392335 429392330#0 429392330#1 429392330#2 23254755#0 1052675054#0-AddedOnRampEdge 1052675054#0 1052675054#1 1052675053#0 1052675053#1 681217521#0 1052675052 1052675050 1052675049 83861791#0 83861791#1 83861791#2 83861791#3 -38963644 -301243903#2 -301243903#0 -1158097321 -301243902#1 -1240474934 -1158095487"/>
    </vehicle>
    <vehicle id="veh52" type="passenger" depart="724.48" departLane="best">
        <route edges="-301243903#0 1158097424 301243903#1 23254763#0 23254763#2 23254763#3 1167747356#1 1052675058 1052675059 83861789#0 1052675057 83861790 1052675056#0 1052675056#1 1052675055#0 83861792 1233933462#0 1233933462#1"/>
    </vehicle>
    <vehicle id="veh54" type="passenger" depart="752.35" departLane="best">
        <route edges="435282152#2 435282152#3 435282150#0 435282150#1 23254552#0 23254552#1 23254552#2 808404758 -301243903#2 -301243903#0"/>
    </vehicle>
    <vehicle id="veh56" type="passenger" depart="780.21" departLane="best">
        <route edges="23174018#0 23174018#2 23174018#4 123306750 23254585#0 23254585#2 321370424 808404757 808404758 23254763#0 23254763#2 23254763#3 1167747356#1 1052675058 1052675059 83861789#0 1052675057 83861790 1052675056#0 1052675056#1 1052675055#0 83861792 1233933462#0 1233933462#1 1233933462#2 1157849034 681217511#0 429392333#0 429392333#1 429392333#2 429392335 429392330#0 429392330#1 429392330#2 23254755#0 1052675054#0-AddedOnRampEdge 1052675054#0"/>
    </vehicle>
    <vehicle id="veh57" type="passenger" depart="794.15" departLane="best">
        <route edges="23254552#1 23254552#2 1160736369 23254539#0 23254539#1 23254539#2 435282150#0 435282150#1 120840401#0 120840401#2 321370423 123306750 1158098732 1158098733#1 1158098640#1 1158098640#2 24405341#0 24405341#2 24405341#4 24405341#5"/>
    </vehicle>
    <vehicle id="veh58" type="passenger" depart="808.08" departLane="best">
        <route edges="83861792 1233933462#0 1233933462#1 1233933462#2 1157849034 681217511#0 429392333#0 429392333#1 429392333#2 429392335 429392330#0 429392330#1 429392330#2 23254755#0 1052675054#0-AddedOnRampEdge 1052675054#0 1052675054#1 1052675053#0 1052675053#1 681217521#0 1052675052 1052675050 1052675049 83861791#0 83861791#1 83861791#2 83861791#3 1160736370 23254539#0 23254539#1 23254539#2 435282150#0 435282150#1 120840401#0 120840401#2 321370423 123306750 23254585#0 23254585#2"/>
    </vehicle>
    <vehicle id="veh59" type="passenger" depart="822.01" departLane="best">
        <route edges="23174018#0 23174018#2 23174018#4 123306750 23254585#0 23254585#2 321370424 808404757 808404758 23254763#0 23254763#2 23254763#3 1167747356#1 1052675058 1052675059 83861789#0 1052675057 83861790 1052675056#0 1052675056#1 1052675055#0 83861792 1233933462#0 1233933462#1 1233933462#2 1157849034 681217511#0 1157848824#0 1157853221#1 651545779 435282149#0 435282149#1 435282149#2 23173895#0"/>
    </vehicle>
    <vehicle id="veh60" type="passenger" depart="835.94" departLane="best">
        <route edges="1158097424 301243903#1 38963644 1160736370 23254522#0"/>
    </vehicle>
    <vehicle id="veh63" type="passenger" depart="877.74" departLane="best">
        <route edges="1157849034 681217511#0 429392333#0 429392333#1 429392333#2 429392335 429392330#0 429392330#1 429392330#2 23254755#0 1052675054#0-AddedOnRampEdge 1052675054#0 1052675054#1 1052675053#0 1052675053#1 681217521#0 1052675052 1052675050 1052675049 83861791#0 83861791#1 83861791#2 48011918#0 23254763#2 23254763#3"/>
    </vehicle>
    <vehicle id="veh64" type="passenger" depart="891.67" departLane="best">
        <route edges="1092717624#0 1092717624#2 23254755#0 1052675054#0-AddedOnRampEdge 1052675054#0 1052675054#1 1052675053#0 1052675053#1 681217521#0 1052675052 1052675050 1052675049 83861791#0 83861791#1 83861791#2 83861791#3 -38963644 -301243903#2"/>
    </vehicle>
    <vehicle id="veh65" type="passenger" depart="905.61" departLane="best">
        <route edges="73273590 1240474934 301243902#0 1240474933 1158097424 301243903#1 38963644 1160736370 23254522#0"/>
    </vehicle>
    <vehicle id="veh66" type="passenger" depart="919.54" departLane="best">
        <route edges="23174024#0 321370424 808404757 808404758 -301243903#2 301243903#1"/>
    </vehicle>
    <vehicle id="veh67" type="passenger" depart="933.47" departLane="best">
        <route edges="435282155#0 1084501318#1 435282157#0 435282157#2 1157853223#1 429392335 429392330#0 429392330#1 429392330#2 23254755#0 1052675054#0-AddedOnRampEdge 1052675054#0 1052675054#1 1052675053#0 1052675053#1 681217521#0 1052675052 1052675050 1052675049"/>
    </vehicle>
    <vehicle id="veh68" type="passenger" depart="947.40" departLane="best">
        <route edges="-38963644 38963644 1160736370 23254539#0 23254539#1 23254539#2 435282150#0 435282150#1 120840401#0 120840401#2 321370423 123306750 1158098732 1158098733#1 1158098640#1 1158098640#2 1158098640#5"/>
    </vehicle>
    <vehicle id="veh69" type="passenger" depart="961.33" departLane="best">
        <route edges="23174018#0 23174018#2 23174018#4 123306750 23254585#0 23254585#2 321370424 808404757 1160736369 23254539#0 23254539#1 23254539#2 435282150#0 435282150#1 120840401#0 120840401#2"/>
    </vehicle>
    <vehicle id="veh70" type="passenger" depart="975.27" departLane="best">
        <route edges="435282152#0 435282152#2 435282152#3 435282150#0 435282150#1 120840401#0 120840401#2 321370423 123306750 1158098732 1158098733#1 1158098640#1 1158098640#2 24405341#0"/>
    </vehicle>
    <vehicle id="veh71" type="passenger" depart="989.20" departLane="best">
        <route edges="83861791#2 83861791#3 -23254558#4 -23254558#2"/>
    </vehicle>
    <vehicle id="veh72" type="passenger" depart="1003.13" departLane="best">
        <route edges="1233933462#2 1157849034 681217511#0 1157848824#0 1157853221#1 651545779 435272950 1157853715"/>
    </vehicle>
    <vehicle id="veh74" type="passenger" depart="1031.00" departLane="best">
        <route edges="1092717624#0 1092717624#2 23254755#0 1052675054#0-AddedOnRampEdge 1052675054#0 1052675054#1 1052675053#0 1052675053#1 681217521#0 1052675052 1052675050 1052675049 83861791#0 83861791#1 83861791#2 83861791#3 1160736370 23254539#0 23254539#1 23254539#2 435282150#0 435282150#1 23254552#0 23254552#1 23254552#2 1160736369"/>
    </vehicle>
    <vehicle id="veh75" type="passenger" depart="1044.93" departLane="best">
        <route edges="23174018#0 23174018#2 23174018#4 123306750 23254585#0 23254585#2 321370424 808404757 808404758 23254763#0 23254763#2 23254763#3 1167747356#1 1052675058 1052675059 83861789#0 1052675057 83861790 1052675056#0 1052675056#1 1052675055#0 83861792 1233933462#0 1233933462#1 1233933462#2 1157849034 681217511#0 429392333#0 429392333#1 429392333#2 429392335 1092993020#0"/>
    </vehicle>
    <vehicle id="veh76" type="passenger" depart="1058.86" departLane="best">
        <route edges="23174018#0 23174018#2 23174018#4 123306750 23254585#0 23254585#2 321370424 808404757 808404758 23254763#0 23254763#2 23254763#3 1167747356#1 1052675058 1052675059 83861789#0 1052675057 83861790 1052675056#0 1052675056#1 1052675055#0 83861792 1233933462#0 1233933462#1 1233933462#2 1157849034 681217511#0 1157848824#0 1157853221#1 651545779 435272950"/>
    </vehicle>
    <vehicle id="veh77" type="passenger" depart="1072.79" departLane="best">
        <route edges="23254558#3 -38963644 -301243903#2 -301243903#0 -1158097321 -301243902#1 -1240474934 -1158095487"/>
    </vehicle>
    <vehicle id="veh79" type="passenger" depart="1100.66" departLane="best">
        <route edges="48011918#0 23254763#2 23254763#3 1167747356#1 1052675058 1052675059 83861789#0 1052675057 83861790 1052675056#0 1052675056#1 1052675055#0 83861792 1233933462#0 1233933462#1 1233933462#2 1157849034 681217511#0 429392333#0 429392333#1 429392333#2 429392335 -54179906#1"/>
    </vehicle>
    <vehicle id="veh80" type="passenger" depart="1114.59" departLane="best">
        <route edges="23174024#0 321370424 808404757 808404758 23254763#0 23254763#2 23254763#3 1167747356#1 1052675058 1052675059 83861789#0 1052675057 83861790 1052675056#0 1052675056#1 1052675055#0 83861792 1233933462#0 1233933462#1 1233933462#2 1157849034 681217511#0 429392333#0 429392333#1 429392333#2 429392335 429392330#0 429392330#1 429392330#2 23254755#0 1052675054#0-AddedOnRampEdge 1052675054#0"/>
    </vehicle>
    <vehicle id="veh81" type="passenger" depart="1128.52" departLane="best">
        <route edges="1233933462#1 1233933462#2 1157849034 681217511#0 429392333#0 429392333#1 429392333#2 429392335 429392330#0 429392330#1 429392330#2 23254755#0 1052675054#0-AddedOnRampEdge 1052675054#0 1052675054#1 1052675053#0 1052675053#1 681217521#0 1052675052 1052675050 1052675049 83861791#0 83861791#1 83861791#2 83861791#3 -38963644 -301243903#2 -301243903#0 -1158097321 -301243902#1 -1240474934 -1158095487"/>
    </vehicle>
    <vehicle id="veh82" type="passenger" depart="1142.46" departLane="best">
        <route edges="1157849035 429392335 429392330#0 429392330#1 429392330#2 23254755#0 1052675054#0-AddedOnRampEdge 1052675054#0 1052675054#1 1052675053#0 1052675053#1 681217521#0 1052675052 1052675050 1052675049 83861791#0 83861791#1 83861791#2 83861791#3 -38963644 -301243903#2 301243903#1"/>
    </vehicle>
    <vehicle id="veh83" type="passenger" depart="1156.39" departLane="best">
        <route edges="23174018#0 23174018#2 23174018#4 123306750 1158098732 1158098733#1 1158098640#1 1158098640#2 1158098640#5"/>
    </vehicle>
    <vehicle id="veh84" type="passenger" depart="1170.32" departLane="best">
        <route edges="808404757 808404758 23254763#0 23254763#2 23254763#3 1167747356#1 1052675058 1052675059 83861789#0 1052675057 83861790 1052675056#0 1052675056#1 1052675055#0 83861792"/>
    </vehicle>
    <vehicle id="veh85" type="passenger" depart="1184.25" departLane="best">
        <route edges="23254585#0 23254585#2 321370424 321370422#2 321370423 123306750 1158098732 1158098733#1 1158098640#1 1158098640#2 24405341#0 24405341#2 24405341#4 24405341#5"/>
    </vehicle>
    <vehicle id="veh86" type="passenger" depart="1198.19" departLane="best">
        <route edges="1052675056#1 1052675055#0 83861792 1233933462#0 1233933462#1 1233933462#2 1157849034 681217511#0 429392333#0 429392333#1 429392333#2 429392335 1092993020#0"/>
    </vehicle>
    <vehicle id="veh87" type="passenger" depart="1212.12" departLane="best">
        <route edges="83861790 1052675056#0 1052675056#1 1052675055#0 83861792 1233933462#0 1233933462#1 1233933462#2 1157849034 681217511#0 429392333#0 429392333#1 429392333#2 429392335 429392330#0 429392330#1 429392330#2 23254755#0 1052675054#0-AddedOnRampEdge 1052675054#0 1052675054#1 1052675053#0 1052675053#1 681217521#0 1052675052 1052675050 1052675049 83861791#0 83861791#1 83861791#2 83861791#3 1160736370 23254522#0"/>
    </vehicle>
    <vehicle id="veh88" type="passenger" depart="1226.05" departLane="best">
        <route edges="23254552#2 1160736369 23254539#0 23254539#1 23254539#2 435282150#0 435282150#1 120840401#0 120840401#2 321370423 28381271#0 28381271#1"/>
    </vehicle>
    <vehicle id="veh91" type="passenger" depart="1267.85" departLane="best">
        <route edges="1052675056#1 1052675055#0 83861792 1233933462#0 1233933462#1 1233933462#2 1157849034 681217511#0 429392333#0 429392333#1 429392333#2 429392335 429392330#0 429392330#1 429392330#2 23254755#0 1052675054#0-AddedOnRampEdge 1052675054#0 1052675054#1 1052675053#0 1052675053#1 681217521#0 1052675052 1052675050 1052675049 83861791#0 83861791#1 83861791#2 83861791#3 1160736370 23254539#0 23254539#1 23254539#2 435282150#0 435282150#1 23254552#0 23254552#1 23254552#2 808404758"/>
    </vehicle>
    <vehicle id="veh92" type="passenger" depart="1281.78" departLane="best">
        <route edges="-301243902#1 301243902#0 1240474933 1158097424 301243903#1 23254763#0 23254763#2 23254763#3 1167747356#1 1052675058 1052675059 83861789#0 1052675057 83861790 1052675056#0 1052675056#1 1052675055#0 83861792 1233933462#0 1233933462#1 1233933462#2 1157849034 681217511#0 429392333#0 429392333#1 429392333#2 429392335 429392330#0 429392330#1 429392330#2 23254755#0 1052675054#0-AddedOnRampEdge 1052675054#0 1052675054#1 1052675053#0 1052675053#1 681217521#0 1052675052 1052675050 1052675049"/>
    </vehicle>
    <vehicle id="veh93" type="passenger" depart="1295.71" departLane="best">